*SPEF "ieee 1481-1999"
*DESIGN "ZeroToFiveCounter"
*DATE "20:09:05 Tuesday May 20, 2025"
*VENDOR "The OpenROAD Project"
*PROGRAM "OpenROAD"
*VERSION "b16bda7e82721d10566ff7e2b68f1ff0be9f9e38"
*DESIGN_FLOW "NAME_SCOPE LOCAL" "PIN_CAP NONE"
*DIVIDER /
*DELIMITER :
*BUS_DELIMITER []
*T_UNIT 1 NS
*C_UNIT 1 PF
*R_UNIT 1 OHM
*L_UNIT 1 HENRY

*NAME_MAP
*1 net6
*2 net10
*3 net11
*4 net7
*5 net8
*6 net9
*7 net12
*8 net13
*11 clk
*12 count[0]
*13 count[1]
*14 count[2]
*15 count[3]
*16 rst
*17 _000_
*18 _001_
*19 _002_
*20 _003_
*21 _004_
*22 _005_
*23 _006_
*24 _007_
*25 _008_
*26 _009_
*27 _010_
*28 _011_
*29 _012_
*30 _013_
*31 _014_
*32 _015_
*33 _016_
*34 _017_
*35 _018_
*36 _019_
*37 _020_
*38 _021_
*39 _022_
*40 _023_
*41 _024_
*42 _025_
*43 _026_
*44 _027_
*45 _028_
*46 _029_
*47 _030_
*48 _031_
*49 _032_
*50 _033_
*51 _034_
*52 _035_
*53 _036_
*54 _037_
*55 _038_
*56 _039_
*57 _040_
*58 _041_
*59 _042_
*60 _043_
*61 _044_
*62 _045_
*63 _046_
*64 _047_
*65 _048_
*66 _049_
*67 _050_
*68 _051_
*69 _052_
*70 _053_
*71 _054_
*72 _055_
*73 _056_
*74 _057_
*75 _058_
*76 _059_
*77 _060_
*78 _061_
*79 _062_
*80 _063_
*81 _064_
*82 _065_
*83 _066_
*84 _067_
*85 _068_
*86 _069_
*87 _070_
*88 _071_
*89 _072_
*90 _073_
*91 _074_
*92 _075_
*93 _076_
*94 _077_
*95 _078_
*96 _079_
*97 _080_
*98 _081_
*99 _082_
*100 _083_
*101 _084_
*102 _085_
*103 _086_
*104 _087_
*105 _088_
*106 _089_
*107 _090_
*108 _091_
*109 _092_
*110 _093_
*111 _094_
*112 _095_
*113 _096_
*114 _097_
*115 _098_
*116 _099_
*117 _100_
*118 _101_
*119 _102_
*120 _103_
*121 _104_
*122 _105_
*123 _106_
*124 _107_
*125 _108_
*126 _109_
*127 _110_
*128 _111_
*129 _112_
*130 _113_
*131 _114_
*132 _115_
*133 _116_
*134 _117_
*135 _118_
*136 _119_
*137 _120_
*138 _121_
*139 _122_
*140 _123_
*141 _124_
*142 _125_
*143 _126_
*144 _127_
*145 _128_
*146 _129_
*147 _130_
*148 _131_
*149 _132_
*150 _133_
*151 _134_
*152 _135_
*153 _136_
*154 _137_
*155 _138_
*156 _139_
*157 _140_
*158 _141_
*159 _142_
*160 _143_
*161 _144_
*162 _145_
*163 _146_
*164 _147_
*165 _148_
*166 _149_
*167 _150_
*168 _151_
*169 _152_
*170 _153_
*171 _154_
*172 _155_
*173 _156_
*174 _157_
*175 _158_
*176 _159_
*177 _160_
*178 _161_
*179 _162_
*180 _163_
*181 _164_
*182 _165_
*183 _166_
*184 _167_
*185 _168_
*186 _169_
*187 _170_
*188 _171_
*189 _172_
*190 _173_
*191 _174_
*192 clknet_0_clk
*193 clknet_2_0__leaf_clk
*194 clknet_2_1__leaf_clk
*195 clknet_2_2__leaf_clk
*196 clknet_2_3__leaf_clk
*197 net1
*198 net14
*199 net15
*200 net16
*201 net17
*202 net18
*203 net2
*204 net3
*205 net4
*206 net5
*207 one_second_counter\[0\]
*208 one_second_counter\[10\]
*209 one_second_counter\[11\]
*210 one_second_counter\[12\]
*211 one_second_counter\[13\]
*212 one_second_counter\[14\]
*213 one_second_counter\[15\]
*214 one_second_counter\[16\]
*215 one_second_counter\[17\]
*216 one_second_counter\[18\]
*217 one_second_counter\[19\]
*218 one_second_counter\[1\]
*219 one_second_counter\[20\]
*220 one_second_counter\[21\]
*221 one_second_counter\[22\]
*222 one_second_counter\[23\]
*223 one_second_counter\[24\]
*224 one_second_counter\[25\]
*225 one_second_counter\[26\]
*226 one_second_counter\[2\]
*227 one_second_counter\[3\]
*228 one_second_counter\[4\]
*229 one_second_counter\[5\]
*230 one_second_counter\[6\]
*231 one_second_counter\[7\]
*232 one_second_counter\[8\]
*233 one_second_counter\[9\]
*234 FILLER_0_0_105
*235 FILLER_0_0_111
*236 FILLER_0_0_113
*237 FILLER_0_0_125
*238 FILLER_0_0_133
*239 FILLER_0_0_15
*240 FILLER_0_0_27
*241 FILLER_0_0_29
*242 FILLER_0_0_3
*243 FILLER_0_0_35
*244 FILLER_0_0_47
*245 FILLER_0_0_55
*246 FILLER_0_0_57
*247 FILLER_0_0_65
*248 FILLER_0_0_69
*249 FILLER_0_0_81
*250 FILLER_0_0_85
*251 FILLER_0_0_91
*252 FILLER_0_0_98
*253 FILLER_0_10_116
*254 FILLER_0_10_128
*255 FILLER_0_10_15
*256 FILLER_0_10_20
*257 FILLER_0_10_29
*258 FILLER_0_10_3
*259 FILLER_0_10_50
*260 FILLER_0_10_62
*261 FILLER_0_10_85
*262 FILLER_0_11_101
*263 FILLER_0_11_105
*264 FILLER_0_11_111
*265 FILLER_0_11_113
*266 FILLER_0_11_125
*267 FILLER_0_11_133
*268 FILLER_0_11_3
*269 FILLER_0_11_31
*270 FILLER_0_11_43
*271 FILLER_0_11_55
*272 FILLER_0_11_57
*273 FILLER_0_11_68
*274 FILLER_0_11_85
*275 FILLER_0_11_97
*276 FILLER_0_12_109
*277 FILLER_0_12_11
*278 FILLER_0_12_122
*279 FILLER_0_12_133
*280 FILLER_0_12_15
*281 FILLER_0_12_21
*282 FILLER_0_12_27
*283 FILLER_0_12_29
*284 FILLER_0_12_3
*285 FILLER_0_12_35
*286 FILLER_0_12_43
*287 FILLER_0_12_52
*288 FILLER_0_12_58
*289 FILLER_0_12_85
*290 FILLER_0_12_97
*291 FILLER_0_13_106
*292 FILLER_0_13_133
*293 FILLER_0_13_15
*294 FILLER_0_13_24
*295 FILLER_0_13_3
*296 FILLER_0_13_32
*297 FILLER_0_13_46
*298 FILLER_0_13_54
*299 FILLER_0_13_57
*300 FILLER_0_13_69
*301 FILLER_0_13_73
*302 FILLER_0_13_94
*303 FILLER_0_14_106
*304 FILLER_0_14_11
*305 FILLER_0_14_127
*306 FILLER_0_14_133
*307 FILLER_0_14_3
*308 FILLER_0_14_32
*309 FILLER_0_14_72
*310 FILLER_0_14_94
*311 FILLER_0_15_133
*312 FILLER_0_15_27
*313 FILLER_0_15_3
*314 FILLER_0_15_39
*315 FILLER_0_15_53
*316 FILLER_0_15_96
*317 FILLER_0_16_127
*318 FILLER_0_16_133
*319 FILLER_0_16_27
*320 FILLER_0_16_29
*321 FILLER_0_16_3
*322 FILLER_0_16_37
*323 FILLER_0_16_64
*324 FILLER_0_16_76
*325 FILLER_0_16_96
*326 FILLER_0_17_105
*327 FILLER_0_17_109
*328 FILLER_0_17_121
*329 FILLER_0_17_133
*330 FILLER_0_17_29
*331 FILLER_0_17_3
*332 FILLER_0_17_65
*333 FILLER_0_17_77
*334 FILLER_0_18_129
*335 FILLER_0_18_133
*336 FILLER_0_18_15
*337 FILLER_0_18_27
*338 FILLER_0_18_29
*339 FILLER_0_18_3
*340 FILLER_0_18_33
*341 FILLER_0_18_37
*342 FILLER_0_18_59
*343 FILLER_0_18_71
*344 FILLER_0_18_83
*345 FILLER_0_18_85
*346 FILLER_0_19_103
*347 FILLER_0_19_111
*348 FILLER_0_19_113
*349 FILLER_0_19_117
*350 FILLER_0_19_121
*351 FILLER_0_19_133
*352 FILLER_0_19_15
*353 FILLER_0_19_3
*354 FILLER_0_19_68
*355 FILLER_0_19_96
*356 FILLER_0_1_100
*357 FILLER_0_1_113
*358 FILLER_0_1_125
*359 FILLER_0_1_18
*360 FILLER_0_1_52
*361 FILLER_0_1_6
*362 FILLER_0_1_62
*363 FILLER_0_1_66
*364 FILLER_0_1_74
*365 FILLER_0_20_109
*366 FILLER_0_20_121
*367 FILLER_0_20_129
*368 FILLER_0_20_18
*369 FILLER_0_20_39
*370 FILLER_0_20_6
*371 FILLER_0_20_97
*372 FILLER_0_21_107
*373 FILLER_0_21_111
*374 FILLER_0_21_113
*375 FILLER_0_21_125
*376 FILLER_0_21_18
*377 FILLER_0_21_30
*378 FILLER_0_21_42
*379 FILLER_0_21_48
*380 FILLER_0_21_6
*381 FILLER_0_21_60
*382 FILLER_0_21_72
*383 FILLER_0_21_95
*384 FILLER_0_22_109
*385 FILLER_0_22_113
*386 FILLER_0_22_125
*387 FILLER_0_22_133
*388 FILLER_0_22_15
*389 FILLER_0_22_27
*390 FILLER_0_22_29
*391 FILLER_0_22_3
*392 FILLER_0_22_41
*393 FILLER_0_22_53
*394 FILLER_0_22_57
*395 FILLER_0_22_69
*396 FILLER_0_22_81
*397 FILLER_0_22_85
*398 FILLER_0_22_97
*399 FILLER_0_2_125
*400 FILLER_0_2_18
*401 FILLER_0_2_6
*402 FILLER_0_2_72
*403 FILLER_0_3_110
*404 FILLER_0_3_120
*405 FILLER_0_3_132
*406 FILLER_0_3_15
*407 FILLER_0_3_27
*408 FILLER_0_3_3
*409 FILLER_0_3_50
*410 FILLER_0_3_54
*411 FILLER_0_3_65
*412 FILLER_0_3_73
*413 FILLER_0_4_120
*414 FILLER_0_4_126
*415 FILLER_0_4_15
*416 FILLER_0_4_27
*417 FILLER_0_4_29
*418 FILLER_0_4_3
*419 FILLER_0_4_36
*420 FILLER_0_4_43
*421 FILLER_0_4_70
*422 FILLER_0_4_78
*423 FILLER_0_4_95
*424 FILLER_0_5_105
*425 FILLER_0_5_111
*426 FILLER_0_5_113
*427 FILLER_0_5_125
*428 FILLER_0_5_133
*429 FILLER_0_5_14
*430 FILLER_0_5_18
*431 FILLER_0_5_25
*432 FILLER_0_5_3
*433 FILLER_0_5_37
*434 FILLER_0_5_46
*435 FILLER_0_5_54
*436 FILLER_0_5_57
*437 FILLER_0_5_69
*438 FILLER_0_5_81
*439 FILLER_0_5_93
*440 FILLER_0_6_107
*441 FILLER_0_6_112
*442 FILLER_0_6_124
*443 FILLER_0_6_132
*444 FILLER_0_6_24
*445 FILLER_0_6_3
*446 FILLER_0_6_34
*447 FILLER_0_6_60
*448 FILLER_0_6_72
*449 FILLER_0_6_85
*450 FILLER_0_7_100
*451 FILLER_0_7_27
*452 FILLER_0_7_3
*453 FILLER_0_7_44
*454 FILLER_0_7_57
*455 FILLER_0_7_62
*456 FILLER_0_7_79
*457 FILLER_0_8_111
*458 FILLER_0_8_3
*459 FILLER_0_8_55
*460 FILLER_0_8_7
*461 FILLER_0_8_85
*462 FILLER_0_9_111
*463 FILLER_0_9_133
*464 FILLER_0_9_15
*465 FILLER_0_9_23
*466 FILLER_0_9_3
*467 FILLER_0_9_60
*468 FILLER_0_9_65
*469 FILLER_0_9_73
*470 FILLER_0_9_89
*471 PHY_EDGE_ROW_0_Left_23
*472 PHY_EDGE_ROW_0_Right_0
*473 PHY_EDGE_ROW_10_Left_33
*474 PHY_EDGE_ROW_10_Right_10
*475 PHY_EDGE_ROW_11_Left_34
*476 PHY_EDGE_ROW_11_Right_11
*477 PHY_EDGE_ROW_12_Left_35
*478 PHY_EDGE_ROW_12_Right_12
*479 PHY_EDGE_ROW_13_Left_36
*480 PHY_EDGE_ROW_13_Right_13
*481 PHY_EDGE_ROW_14_Left_37
*482 PHY_EDGE_ROW_14_Right_14
*483 PHY_EDGE_ROW_15_Left_38
*484 PHY_EDGE_ROW_15_Right_15
*485 PHY_EDGE_ROW_16_Left_39
*486 PHY_EDGE_ROW_16_Right_16
*487 PHY_EDGE_ROW_17_Left_40
*488 PHY_EDGE_ROW_17_Right_17
*489 PHY_EDGE_ROW_18_Left_41
*490 PHY_EDGE_ROW_18_Right_18
*491 PHY_EDGE_ROW_19_Left_42
*492 PHY_EDGE_ROW_19_Right_19
*493 PHY_EDGE_ROW_1_Left_24
*494 PHY_EDGE_ROW_1_Right_1
*495 PHY_EDGE_ROW_20_Left_43
*496 PHY_EDGE_ROW_20_Right_20
*497 PHY_EDGE_ROW_21_Left_44
*498 PHY_EDGE_ROW_21_Right_21
*499 PHY_EDGE_ROW_22_Left_45
*500 PHY_EDGE_ROW_22_Right_22
*501 PHY_EDGE_ROW_2_Left_25
*502 PHY_EDGE_ROW_2_Right_2
*503 PHY_EDGE_ROW_3_Left_26
*504 PHY_EDGE_ROW_3_Right_3
*505 PHY_EDGE_ROW_4_Left_27
*506 PHY_EDGE_ROW_4_Right_4
*507 PHY_EDGE_ROW_5_Left_28
*508 PHY_EDGE_ROW_5_Right_5
*509 PHY_EDGE_ROW_6_Left_29
*510 PHY_EDGE_ROW_6_Right_6
*511 PHY_EDGE_ROW_7_Left_30
*512 PHY_EDGE_ROW_7_Right_7
*513 PHY_EDGE_ROW_8_Left_31
*514 PHY_EDGE_ROW_8_Right_8
*515 PHY_EDGE_ROW_9_Left_32
*516 PHY_EDGE_ROW_9_Right_9
*517 TAP_TAPCELL_ROW_0_46
*518 TAP_TAPCELL_ROW_0_47
*519 TAP_TAPCELL_ROW_0_48
*520 TAP_TAPCELL_ROW_0_49
*521 TAP_TAPCELL_ROW_10_68
*522 TAP_TAPCELL_ROW_10_69
*523 TAP_TAPCELL_ROW_11_70
*524 TAP_TAPCELL_ROW_11_71
*525 TAP_TAPCELL_ROW_12_72
*526 TAP_TAPCELL_ROW_12_73
*527 TAP_TAPCELL_ROW_13_74
*528 TAP_TAPCELL_ROW_13_75
*529 TAP_TAPCELL_ROW_14_76
*530 TAP_TAPCELL_ROW_14_77
*531 TAP_TAPCELL_ROW_15_78
*532 TAP_TAPCELL_ROW_15_79
*533 TAP_TAPCELL_ROW_16_80
*534 TAP_TAPCELL_ROW_16_81
*535 TAP_TAPCELL_ROW_17_82
*536 TAP_TAPCELL_ROW_17_83
*537 TAP_TAPCELL_ROW_18_84
*538 TAP_TAPCELL_ROW_18_85
*539 TAP_TAPCELL_ROW_19_86
*540 TAP_TAPCELL_ROW_19_87
*541 TAP_TAPCELL_ROW_1_50
*542 TAP_TAPCELL_ROW_1_51
*543 TAP_TAPCELL_ROW_20_88
*544 TAP_TAPCELL_ROW_20_89
*545 TAP_TAPCELL_ROW_21_90
*546 TAP_TAPCELL_ROW_21_91
*547 TAP_TAPCELL_ROW_22_92
*548 TAP_TAPCELL_ROW_22_93
*549 TAP_TAPCELL_ROW_22_94
*550 TAP_TAPCELL_ROW_22_95
*551 TAP_TAPCELL_ROW_2_52
*552 TAP_TAPCELL_ROW_2_53
*553 TAP_TAPCELL_ROW_3_54
*554 TAP_TAPCELL_ROW_3_55
*555 TAP_TAPCELL_ROW_4_56
*556 TAP_TAPCELL_ROW_4_57
*557 TAP_TAPCELL_ROW_5_58
*558 TAP_TAPCELL_ROW_5_59
*559 TAP_TAPCELL_ROW_6_60
*560 TAP_TAPCELL_ROW_6_61
*561 TAP_TAPCELL_ROW_7_62
*562 TAP_TAPCELL_ROW_7_63
*563 TAP_TAPCELL_ROW_8_64
*564 TAP_TAPCELL_ROW_8_65
*565 TAP_TAPCELL_ROW_9_66
*566 TAP_TAPCELL_ROW_9_67
*567 ZeroToFiveCounter_10
*568 ZeroToFiveCounter_11
*569 ZeroToFiveCounter_12
*570 ZeroToFiveCounter_13
*571 ZeroToFiveCounter_6
*572 ZeroToFiveCounter_7
*573 ZeroToFiveCounter_8
*574 ZeroToFiveCounter_9
*575 _175_
*576 _176_
*577 _177_
*578 _178_
*579 _179_
*580 _180_
*581 _181_
*582 _182_
*583 _183_
*584 _184_
*585 _185_
*586 _186_
*587 _187_
*588 _188_
*589 _189_
*590 _190_
*591 _191_
*592 _192_
*593 _193_
*594 _194_
*595 _195_
*596 _196_
*597 _197_
*598 _198_
*599 _199_
*600 _200_
*601 _201_
*602 _202_
*603 _203_
*604 _204_
*605 _205_
*606 _206_
*607 _207_
*608 _208_
*609 _209_
*610 _210_
*611 _211_
*612 _212_
*613 _213_
*614 _214_
*615 _215_
*616 _216_
*617 _217_
*618 _218_
*619 _219_
*620 _220_
*621 _221_
*622 _222_
*623 _223_
*624 _224_
*625 _225_
*626 _226_
*627 _227_
*628 _228_
*629 _229_
*630 _230_
*631 _231_
*632 _232_
*633 _233_
*634 _234_
*635 _235_
*636 _236_
*637 _237_
*638 _238_
*639 _239_
*640 _240_
*641 _241_
*642 _242_
*643 _243_
*644 _244_
*645 _245_
*646 _246_
*647 _247_
*648 _248_
*649 _249_
*650 _250_
*651 _251_
*652 _252_
*653 _253_
*654 _254_
*655 _255_
*656 _256_
*657 _257_
*658 _258_
*659 _259_
*660 _260_
*661 _261_
*662 _262_
*663 _263_
*664 _264_
*665 _265_
*666 _266_
*667 _267_
*668 _268_
*669 _269_
*670 _270_
*671 _271_
*672 _272_
*673 _273_
*674 _274_
*675 _275_
*676 _276_
*677 _277_
*678 _278_
*679 _279_
*680 _280_
*681 _281_
*682 _282_
*683 _283_
*684 _284_
*685 _285_
*686 _286_
*687 _287_
*688 _288_
*689 _289_
*690 _290_
*691 _291_
*692 _292_
*693 _293_
*694 _294_
*695 _295_
*696 _296_
*697 _297_
*698 _298_
*699 _299_
*700 _300_
*701 _301_
*702 _302_
*703 _303_
*704 _304_
*705 _305_
*706 _306_
*707 _307_
*708 _308_
*709 _309_
*710 _310_
*711 _311_
*712 _312_
*713 _313_
*714 _314_
*715 _315_
*716 _316_
*717 _317_
*718 _318_
*719 _319_
*720 _320_
*721 _321_
*722 _322_
*723 _323_
*724 _324_
*725 _325_
*726 _326_
*727 _327_
*728 _328_
*729 _329_
*730 _330_
*731 _331_
*732 _332_
*733 _333_
*734 _334_
*735 _335_
*736 _336_
*737 _337_
*738 _338_
*739 _339_
*740 _340_
*741 _341_
*742 _342_
*743 _343_
*744 _344_
*745 _345_
*746 _346_
*747 _347_
*748 _348_
*749 _349_
*750 _350_
*751 _351_
*752 _352_
*753 _353_
*754 _354_
*755 _355_
*756 _356_
*757 _357_
*758 _358_
*759 _359_
*760 _360_
*761 _361_
*762 _362_
*763 _363_
*764 _364_
*765 _365_
*766 _366_
*767 _367_
*768 _368_
*769 _369_
*770 _370_
*771 _371_
*772 _372_
*773 _373_
*774 _374_
*775 _375_
*776 _376_
*777 _377_
*778 _378_
*779 _379_
*780 _380_
*781 clkbuf_0_clk
*782 clkbuf_2_0__f_clk
*783 clkbuf_2_1__f_clk
*784 clkbuf_2_2__f_clk
*785 clkbuf_2_3__f_clk
*786 clkload0
*787 clkload1
*788 clkload2
*789 hold1
*790 hold2
*791 hold3
*792 hold4
*793 hold5
*794 input1
*795 output2
*796 output3
*797 output4
*798 output5

*PORTS
AN[0] O
AN[1] O
AN[2] O
AN[3] O
AN[4] O
AN[5] O
AN[6] O
AN[7] O
clk I
count[0] O
count[1] O
count[2] O
count[3] O
rst I

*D_NET *1 0.000624435
*CONN
*P AN[0] O
*I *571:LO O *D sky130_fd_sc_hd__conb_1
*CAP
1 AN[0] 0.000299151
2 *571:LO 0.000299151
3 AN[0] AN[5] 2.61329e-05
*RES
1 *571:LO AN[0] 49.8062 
*END

*D_NET *2 0.000675139
*CONN
*P AN[1] O
*I *567:HI O *D sky130_fd_sc_hd__conb_1
*CAP
1 AN[1] 0.000311323
2 *567:HI 0.000311323
3 AN[1] AN[4] 3.12475e-05
4 AN[1] *11:17 2.12457e-05
*RES
1 *567:HI AN[1] 49.8062 
*END

*D_NET *3 0.000589473
*CONN
*P AN[2] O
*I *568:HI O *D sky130_fd_sc_hd__conb_1
*CAP
1 AN[2] 0.00025605
2 *568:HI 0.00025605
3 AN[2] AN[6] 7.73721e-05
*RES
1 *568:HI AN[2] 47.8691 
*END

*D_NET *4 0.000508902
*CONN
*P AN[3] O
*I *572:LO O *D sky130_fd_sc_hd__conb_1
*CAP
1 AN[3] 0.000175073
2 *572:LO 0.000175073
3 AN[3] AN[7] 8.13852e-05
4 AN[3] count[3] 7.73721e-05
*RES
1 *572:LO AN[3] 47.1648 
*END

*D_NET *5 0.000537015
*CONN
*P AN[4] O
*I *573:LO O *D sky130_fd_sc_hd__conb_1
*CAP
1 AN[4] 0.000252884
2 *573:LO 0.000252884
3 AN[4] *11:17 0
4 AN[1] AN[4] 3.12475e-05
*RES
1 *573:LO AN[4] 47.7832 
*END

*D_NET *6 0.00063228
*CONN
*P AN[5] O
*I *574:LO O *D sky130_fd_sc_hd__conb_1
*CAP
1 AN[5] 0.000303073
2 *574:LO 0.000303073
3 AN[0] AN[5] 2.61329e-05
*RES
1 *574:LO AN[5] 49.8062 
*END

*D_NET *7 0.000591424
*CONN
*P AN[6] O
*I *569:HI O *D sky130_fd_sc_hd__conb_1
*CAP
1 AN[6] 0.000257026
2 *569:HI 0.000257026
3 AN[2] AN[6] 7.73721e-05
*RES
1 *569:HI AN[6] 47.8691 
*END

*D_NET *8 0.000587038
*CONN
*P AN[7] O
*I *570:HI O *D sky130_fd_sc_hd__conb_1
*CAP
1 AN[7] 0.000252827
2 *570:HI 0.000252827
3 AN[3] AN[7] 8.13852e-05
*RES
1 *570:HI AN[7] 47.8691 
*END

*D_NET *11 0.00811624
*CONN
*P clk I
*I *781:A I *D sky130_fd_sc_hd__clkbuf_16
*CAP
1 clk 0.00398626
2 *781:A 0
3 *11:17 0.00398626
4 *11:17 *79:16 0.000122486
5 AN[1] *11:17 2.12457e-05
6 AN[4] *11:17 0
*RES
1 clk *11:17 35.7074 
2 *11:17 *781:A 38 
*END

*D_NET *12 0.000938926
*CONN
*P count[0] O
*I *795:X O *D sky130_fd_sc_hd__buf_2
*CAP
1 count[0] 0.000469463
2 *795:X 0.000469463
3 count[0] count[1] 0
*RES
1 *795:X count[0] 47.0936 
*END

*D_NET *13 0.000848257
*CONN
*P count[1] O
*I *796:X O *D sky130_fd_sc_hd__buf_2
*CAP
1 count[1] 0.000424129
2 *796:X 0.000424129
3 count[1] count[2] 0
4 count[0] count[1] 0
*RES
1 *796:X count[1] 47.2386 
*END

*D_NET *14 0.000929076
*CONN
*P count[2] O
*I *797:X O *D sky130_fd_sc_hd__buf_2
*CAP
1 count[2] 0.000464538
2 *797:X 0.000464538
3 count[1] count[2] 0
*RES
1 *797:X count[2] 47.0936 
*END

*D_NET *15 0.0007897
*CONN
*P count[3] O
*I *798:X O *D sky130_fd_sc_hd__buf_2
*CAP
1 count[3] 0.000291491
2 *798:X 0.000291491
3 count[3] *206:44 0.000129346
4 AN[3] count[3] 7.73721e-05
*RES
1 *798:X count[3] 48.6592 
*END

*D_NET *16 0.000901682
*CONN
*P rst I
*I *794:A I *D sky130_fd_sc_hd__buf_1
*CAP
1 rst 0.000450841
2 *794:A 0.000450841
*RES
1 rst *794:A 47.3214 
*END

*D_NET *17 0.000417937
*CONN
*I *754:D I *D sky130_fd_sc_hd__dfrtp_1
*I *610:X O *D sky130_fd_sc_hd__clkbuf_1
*CAP
1 *754:D 0
2 *610:X 0.000113403
3 *17:10 0.000113403
4 *17:10 *102:38 0.000107232
5 *17:10 *104:8 2.59423e-05
6 *17:10 *207:36 5.79559e-05
*RES
1 *610:X *17:10 40.175 
2 *17:10 *754:D 38 
*END

*D_NET *18 0.000371389
*CONN
*I *764:D I *D sky130_fd_sc_hd__dfrtp_1
*I *652:X O *D sky130_fd_sc_hd__clkbuf_1
*CAP
1 *764:D 0.000176449
2 *652:X 0.000176449
3 *764:D *764:CLK 1.84917e-05
*RES
1 *652:X *764:D 48.5479 
*END

*D_NET *19 0.000298973
*CONN
*I *765:D I *D sky130_fd_sc_hd__dfrtp_1
*I *657:X O *D sky130_fd_sc_hd__o211a_1
*CAP
1 *765:D 9.86246e-05
2 *657:X 9.86246e-05
3 *765:D *195:29 8.26478e-05
4 *765:D *202:10 1.90755e-05
*RES
1 *657:X *765:D 48.0507 
*END

*D_NET *20 0.000324351
*CONN
*I *766:D I *D sky130_fd_sc_hd__dfrtp_1
*I *662:X O *D sky130_fd_sc_hd__clkbuf_1
*CAP
1 *766:D 0.000107584
2 *662:X 0.000107584
3 *766:D *103:50 4.75206e-05
4 *766:D *143:10 3.22879e-05
5 *766:D *195:21 2.93747e-05
*RES
1 *662:X *766:D 48.5479 
*END

*D_NET *21 0.00045103
*CONN
*I *767:D I *D sky130_fd_sc_hd__dfrtp_1
*I *666:X O *D sky130_fd_sc_hd__clkbuf_1
*CAP
1 *767:D 0
2 *666:X 0.000225515
3 *21:10 0.000225515
*RES
1 *666:X *21:10 41.1279 
2 *21:10 *767:D 38 
*END

*D_NET *22 0.000370426
*CONN
*I *768:D I *D sky130_fd_sc_hd__dfrtp_1
*I *669:X O *D sky130_fd_sc_hd__o211a_1
*CAP
1 *768:D 0
2 *669:X 0.000120434
3 *22:10 0.000120434
4 *22:10 *113:103 7.28526e-05
5 *22:10 *142:40 5.67058e-05
6 *22:10 *148:10 0
*RES
1 *669:X *22:10 40.5271 
2 *22:10 *768:D 38 
*END

*D_NET *23 0.00107057
*CONN
*I *769:D I *D sky130_fd_sc_hd__dfrtp_1
*I *675:X O *D sky130_fd_sc_hd__clkbuf_1
*CAP
1 *769:D 0.000279639
2 *675:X 6.93248e-05
3 *23:8 0.000348964
4 *769:D *667:B 4.98295e-05
5 *769:D *211:32 0.000168889
6 *23:8 *150:8 6.67651e-05
7 *23:8 *213:14 8.71559e-05
*RES
1 *675:X *23:8 39.9057 
2 *23:8 *769:D 43.3857 
*END

*D_NET *24 0.000560402
*CONN
*I *770:D I *D sky130_fd_sc_hd__dfrtp_2
*I *679:X O *D sky130_fd_sc_hd__clkbuf_1
*CAP
1 *770:D 7.48079e-05
2 *679:X 8.42631e-05
3 *24:8 0.000159071
4 *770:D *152:54 5.3304e-05
5 *770:D *214:87 5.67058e-05
6 *770:D *215:31 1.39317e-05
7 *24:8 *152:46 3.4699e-05
8 *24:8 *152:65 8.36198e-05
9 *24:8 *214:60 0
*RES
1 *679:X *24:8 39.5536 
2 *24:8 *770:D 39.5743 
*END

*D_NET *25 0.000424431
*CONN
*I *771:D I *D sky130_fd_sc_hd__dfrtp_1
*I *683:X O *D sky130_fd_sc_hd__clkbuf_1
*CAP
1 *771:D 0
2 *683:X 0.000141055
3 *25:10 0.000141055
4 *25:10 *65:8 0.000139865
5 *25:10 *214:60 2.45549e-06
*RES
1 *683:X *25:10 40.5271 
2 *25:10 *771:D 38 
*END

*D_NET *26 0.000483532
*CONN
*I *772:D I *D sky130_fd_sc_hd__dfrtp_1
*I *688:X O *D sky130_fd_sc_hd__clkbuf_1
*CAP
1 *772:D 4.90979e-05
2 *688:X 9.8888e-05
3 *26:10 0.000147986
4 *26:10 *688:A 5.5792e-05
5 *26:10 *772:CLK 5.511e-05
6 *26:10 *192:40 7.66582e-05
*RES
1 *688:X *26:10 40.175 
2 *26:10 *772:D 38.6214 
*END

*D_NET *27 0.00101383
*CONN
*I *773:D I *D sky130_fd_sc_hd__dfrtp_1
*I *693:X O *D sky130_fd_sc_hd__o211a_1
*CAP
1 *773:D 8.07057e-05
2 *693:X 0.000362613
3 *27:10 0.000443319
4 *773:D *196:12 7.87147e-05
5 *27:10 *167:16 4.84805e-05
*RES
1 *693:X *27:10 43.945 
2 *27:10 *773:D 39.5743 
*END

*D_NET *28 0.000351557
*CONN
*I *755:D I *D sky130_fd_sc_hd__dfrtp_1
*I *614:X O *D sky130_fd_sc_hd__clkbuf_1
*CAP
1 *755:D 0.000156672
2 *614:X 0.000156672
3 *755:D *614:A 1.3523e-05
4 *755:D *193:60 2.46906e-05
*RES
1 *614:X *755:D 48.5479 
*END

*D_NET *29 0.000780243
*CONN
*I *774:D I *D sky130_fd_sc_hd__dfrtp_2
*I *697:X O *D sky130_fd_sc_hd__clkbuf_1
*CAP
1 *774:D 0.000307756
2 *697:X 8.09869e-05
3 *29:8 0.000388743
4 *29:8 *169:10 2.75733e-06
*RES
1 *697:X *29:8 39.2014 
2 *29:8 *774:D 42.0238 
*END

*D_NET *30 0.000960932
*CONN
*I *775:D I *D sky130_fd_sc_hd__dfrtp_1
*I *700:X O *D sky130_fd_sc_hd__o211a_1
*CAP
1 *775:D 0
2 *700:X 0.000345106
3 *30:10 0.000345106
4 *30:10 *700:A1 8.16277e-05
5 *30:10 *700:A2 4.56338e-05
6 *30:10 *700:C1 2.93747e-05
7 *30:10 *196:67 0.000114083
*RES
1 *700:X *30:10 43.51 
2 *30:10 *775:D 38 
*END

*D_NET *31 0.000404693
*CONN
*I *776:D I *D sky130_fd_sc_hd__dfrtp_1
*I *703:X O *D sky130_fd_sc_hd__o211a_1
*CAP
1 *776:D 0.0001232
2 *703:X 0.0001232
3 *776:D *165:46 4.28776e-05
4 *776:D *186:143 0.000115416
*RES
1 *703:X *776:D 48.5271 
*END

*D_NET *32 0.0008837
*CONN
*I *777:D I *D sky130_fd_sc_hd__dfrtp_1
*I *707:X O *D sky130_fd_sc_hd__o211a_1
*CAP
1 *777:D 0.000236931
2 *707:X 7.51353e-05
3 *32:8 0.000312066
4 *777:D *167:26 9.32948e-05
5 *777:D *167:117 2.43944e-05
6 *32:8 *103:120 0
7 *32:8 *186:82 0.000141879
*RES
1 *707:X *32:8 39.9057 
2 *32:8 *777:D 41.9564 
*END

*D_NET *33 0.000538693
*CONN
*I *778:D I *D sky130_fd_sc_hd__dfrtp_1
*I *709:X O *D sky130_fd_sc_hd__o311a_1
*CAP
1 *778:D 1.36998e-05
2 *709:X 0.000137409
3 *33:10 0.000151108
4 *778:D *607:A2 5.56279e-05
5 *778:D *186:12 3.22051e-05
6 *33:10 *607:A2 2.21614e-05
7 *33:10 *712:A 1.03972e-05
8 *33:10 *96:8 5.53196e-05
9 *33:10 *96:12 6.0765e-05
*RES
1 *709:X *33:10 40.175 
2 *33:10 *778:D 38.6214 
*END

*D_NET *34 0.000602649
*CONN
*I *779:D I *D sky130_fd_sc_hd__dfrtp_2
*I *714:X O *D sky130_fd_sc_hd__clkbuf_1
*CAP
1 *779:D 0
2 *714:X 0.000301325
3 *34:10 0.000301325
*RES
1 *714:X *34:10 42.4329 
2 *34:10 *779:D 38 
*END

*D_NET *35 0.00294574
*CONN
*I *780:D I *D sky130_fd_sc_hd__dfrtp_1
*I *715:Y O *D sky130_fd_sc_hd__a21boi_1
*CAP
1 *780:D 0.00073081
2 *715:Y 0.000224716
3 *35:10 0.000955527
4 *780:D *780:CLK 0.000362143
5 *780:D *224:51 0.000261206
6 *780:D *225:18 5.3304e-05
7 *35:10 *81:6 6.58415e-06
8 *35:10 *101:14 0.00026791
9 *35:10 *103:84 1.85903e-05
10 *35:10 *203:33 3.7122e-06
11 *35:10 *225:18 6.12392e-05
*RES
1 *715:Y *35:10 42.06 
2 *35:10 *780:D 48.6937 
*END

*D_NET *36 0.0008262
*CONN
*I *756:D I *D sky130_fd_sc_hd__dfrtp_1
*I *618:X O *D sky130_fd_sc_hd__clkbuf_1
*CAP
1 *756:D 9.00382e-05
2 *618:X 0.000278166
3 *36:10 0.000368204
4 *756:D *193:36 8.15864e-05
5 *36:10 *618:A 8.20511e-06
6 *36:10 *723:A 0
7 *36:10 *193:36 0
*RES
1 *618:X *36:10 41.8321 
2 *36:10 *756:D 40.0507 
*END

*D_NET *37 0.00106404
*CONN
*I *757:D I *D sky130_fd_sc_hd__dfrtp_1
*I *621:X O *D sky130_fd_sc_hd__clkbuf_1
*CAP
1 *757:D 0
2 *621:X 0.000264123
3 *37:10 0.000264123
4 *37:10 *187:21 0.00019288
5 *37:10 *193:24 0.000342913
*RES
1 *621:X *37:10 44.0486 
2 *37:10 *757:D 38 
*END

*D_NET *38 0.00033863
*CONN
*I *758:D I *D sky130_fd_sc_hd__dfrtp_1
*I *627:X O *D sky130_fd_sc_hd__clkbuf_1
*CAP
1 *758:D 0.000113556
2 *627:X 0.000113556
3 *758:D *114:44 5.41385e-05
4 *758:D *193:97 5.73796e-05
*RES
1 *627:X *758:D 48.5479 
*END

*D_NET *39 0.000516945
*CONN
*I *759:D I *D sky130_fd_sc_hd__dfrtp_1
*I *631:X O *D sky130_fd_sc_hd__clkbuf_1
*CAP
1 *759:D 0
2 *631:X 0.000255385
3 *39:10 0.000255385
4 *39:10 *631:A 6.17437e-06
5 *39:10 *120:8 0
*RES
1 *631:X *39:10 41.6043 
2 *39:10 *759:D 38 
*END

*D_NET *40 0.000459035
*CONN
*I *760:D I *D sky130_fd_sc_hd__dfrtp_1
*I *634:X O *D sky130_fd_sc_hd__o211a_1
*CAP
1 *760:D 0
2 *634:X 0.000124202
3 *40:10 0.000124202
4 *40:10 *634:C1 5.5792e-05
5 *40:10 *121:10 3.88629e-05
6 *40:10 *187:36 0.000110267
7 *40:10 *193:97 5.71002e-06
*RES
1 *634:X *40:10 40.175 
2 *40:10 *760:D 38 
*END

*D_NET *41 0.00046419
*CONN
*I *761:D I *D sky130_fd_sc_hd__dfrtp_1
*I *637:X O *D sky130_fd_sc_hd__clkbuf_1
*CAP
1 *761:D 0
2 *637:X 0.000215102
3 *41:10 0.000215102
4 *41:10 *189:32 3.39868e-05
*RES
1 *637:X *41:10 41.1279 
2 *41:10 *761:D 38 
*END

*D_NET *42 0.000439899
*CONN
*I *762:D I *D sky130_fd_sc_hd__dfrtp_1
*I *642:X O *D sky130_fd_sc_hd__clkbuf_1
*CAP
1 *762:D 0
2 *642:X 0.00020088
3 *42:10 0.00020088
4 *42:10 *762:CLK 3.81391e-05
5 *42:10 *185:77 0
*RES
1 *642:X *42:10 41.1279 
2 *42:10 *762:D 38 
*END

*D_NET *43 0.000394594
*CONN
*I *763:D I *D sky130_fd_sc_hd__dfrtp_1
*I *647:X O *D sky130_fd_sc_hd__clkbuf_1
*CAP
1 *763:D 0
2 *647:X 0.000171
3 *43:10 0.000171
4 *43:10 *195:49 4.21594e-06
5 *43:10 *195:51 4.83778e-05
*RES
1 *647:X *43:10 41.0036 
2 *43:10 *763:D 38 
*END

*D_NET *44 0.000922586
*CONN
*I *750:RESET_B I *D sky130_fd_sc_hd__dfrtp_1
*I *717:Y O *D sky130_fd_sc_hd__inv_2
*CAP
1 *750:RESET_B 0
2 *717:Y 0.000226471
3 *44:10 0.000226471
4 *44:10 *598:A 0.00016292
5 *44:10 *92:8 0.000214705
6 *44:10 *184:16 0
7 *44:10 *203:10 9.20193e-05
*RES
1 *717:Y *44:10 43.6964 
2 *44:10 *750:RESET_B 15 
*END

*D_NET *45 0.00133087
*CONN
*I *751:RESET_B I *D sky130_fd_sc_hd__dfrtp_1
*I *718:Y O *D sky130_fd_sc_hd__inv_2
*CAP
1 *751:RESET_B 0.00050896
2 *718:Y 0.00050896
3 *751:RESET_B *596:A 9.41704e-05
4 *751:RESET_B *751:CLK 0.000188082
5 *751:RESET_B *751:D 3.06971e-05
*RES
1 *718:Y *751:RESET_B 31.6482 
*END

*D_NET *46 0.00154958
*CONN
*I *752:RESET_B I *D sky130_fd_sc_hd__dfrtp_1
*I *719:Y O *D sky130_fd_sc_hd__inv_2
*CAP
1 *752:RESET_B 0.000290383
2 *719:Y 5.2295e-05
3 *46:8 0.000342678
4 *752:RESET_B *47:10 5.56356e-05
5 *752:RESET_B *184:102 0.000194006
6 *752:RESET_B *184:115 0.000175403
7 *752:RESET_B *205:8 0.000140436
8 *752:RESET_B *206:44 1.35999e-05
9 *46:8 *184:115 0.000141975
10 *46:8 *206:44 0.000143166
*RES
1 *719:Y *46:8 39.9057 
2 *46:8 *752:RESET_B 22.2396 
*END

*D_NET *47 0.000924553
*CONN
*I *753:RESET_B I *D sky130_fd_sc_hd__dfrtp_1
*I *720:Y O *D sky130_fd_sc_hd__inv_2
*CAP
1 *753:RESET_B 6.38258e-05
2 *720:Y 0.000314015
3 *47:10 0.000377841
4 *47:10 *206:8 0.000113235
5 *752:RESET_B *47:10 5.56356e-05
*RES
1 *720:Y *47:10 44.0486 
2 *47:10 *753:RESET_B 16.0254 
*END

*D_NET *48 0.000317353
*CONN
*I *754:RESET_B I *D sky130_fd_sc_hd__dfrtp_1
*I *721:Y O *D sky130_fd_sc_hd__inv_2
*CAP
1 *754:RESET_B 0.000123205
2 *721:Y 0.000123205
3 *754:RESET_B *184:49 2.00704e-05
4 *754:RESET_B *207:10 5.08713e-05
*RES
1 *721:Y *754:RESET_B 25.4546 
*END

*D_NET *49 0.000359545
*CONN
*I *755:RESET_B I *D sky130_fd_sc_hd__dfrtp_1
*I *722:Y O *D sky130_fd_sc_hd__inv_2
*CAP
1 *755:RESET_B 0
2 *722:Y 0.000105526
3 *49:10 0.000105526
4 *49:10 *722:A 3.22879e-05
5 *49:10 *197:8 0
6 *49:10 *207:16 0.000116205
*RES
1 *722:Y *49:10 40.175 
2 *49:10 *755:RESET_B 15 
*END

*D_NET *50 0.000270567
*CONN
*I *756:RESET_B I *D sky130_fd_sc_hd__dfrtp_1
*I *723:Y O *D sky130_fd_sc_hd__inv_2
*CAP
1 *756:RESET_B 0
2 *723:Y 0.000135284
3 *50:8 0.000135284
4 *50:8 *226:12 0
*RES
1 *723:Y *50:8 40.61 
2 *50:8 *756:RESET_B 15 
*END

*D_NET *51 0.00087499
*CONN
*I *757:RESET_B I *D sky130_fd_sc_hd__dfrtp_1
*I *724:Y O *D sky130_fd_sc_hd__inv_2
*CAP
1 *757:RESET_B 0.00035742
2 *724:Y 0.00035742
3 *757:RESET_B *618:A 4.72957e-05
4 *757:RESET_B *724:A 2.64616e-05
5 *757:RESET_B *193:24 5.29672e-05
6 *757:RESET_B *193:36 3.34247e-05
*RES
1 *724:Y *757:RESET_B 28.9554 
*END

*D_NET *52 0.000896047
*CONN
*I *758:RESET_B I *D sky130_fd_sc_hd__dfrtp_1
*I *725:Y O *D sky130_fd_sc_hd__inv_2
*CAP
1 *758:RESET_B 0
2 *725:Y 0.000261485
3 *52:10 0.000261485
4 *52:10 *624:A 0
5 *52:10 *53:10 0.000123745
6 *52:10 *115:16 0.000249333
7 *52:10 *115:31 0
8 *52:10 *120:8 0
*RES
1 *725:Y *52:10 44.0486 
2 *52:10 *758:RESET_B 15 
*END

*D_NET *53 0.000612903
*CONN
*I *759:RESET_B I *D sky130_fd_sc_hd__dfrtp_1
*I *726:Y O *D sky130_fd_sc_hd__inv_2
*CAP
1 *759:RESET_B 0
2 *726:Y 0.000193697
3 *53:10 0.000193697
4 *53:10 *725:A 0.000101764
5 *53:10 *120:8 0
6 *52:10 *53:10 0.000123745
*RES
1 *726:Y *53:10 42.3086 
2 *53:10 *759:RESET_B 15 
*END

*D_NET *54 0.000351702
*CONN
*I *760:RESET_B I *D sky130_fd_sc_hd__dfrtp_1
*I *728:Y O *D sky130_fd_sc_hd__inv_2
*CAP
1 *760:RESET_B 0.000106985
2 *728:Y 0.000106985
3 *760:RESET_B *230:10 0.000137732
*RES
1 *728:Y *760:RESET_B 25.4546 
*END

*D_NET *55 0.000841621
*CONN
*I *761:RESET_B I *D sky130_fd_sc_hd__dfrtp_1
*I *729:Y O *D sky130_fd_sc_hd__inv_2
*CAP
1 *761:RESET_B 0.000420811
2 *729:Y 0.000420811
*RES
1 *729:Y *761:RESET_B 28.9554 
*END

*D_NET *56 0.000688718
*CONN
*I *762:RESET_B I *D sky130_fd_sc_hd__dfrtp_1
*I *730:Y O *D sky130_fd_sc_hd__inv_2
*CAP
1 *762:RESET_B 0
2 *730:Y 0.000148384
3 *56:10 0.000148384
4 *56:10 *113:48 0.000197266
5 *56:10 *185:77 0.000194684
*RES
1 *730:Y *56:10 41.7079 
2 *56:10 *762:RESET_B 15 
*END

*D_NET *57 0.000379269
*CONN
*I *763:RESET_B I *D sky130_fd_sc_hd__dfrtp_1
*I *731:Y O *D sky130_fd_sc_hd__inv_2
*CAP
1 *763:RESET_B 6.2695e-05
2 *731:Y 6.2695e-05
3 *763:RESET_B *195:47 0.000228926
4 *763:RESET_B *233:10 2.49531e-05
*RES
1 *731:Y *763:RESET_B 25.4546 
*END

*D_NET *58 0.00112973
*CONN
*I *764:RESET_B I *D sky130_fd_sc_hd__dfrtp_1
*I *732:Y O *D sky130_fd_sc_hd__inv_2
*CAP
1 *764:RESET_B 0
2 *732:Y 0.000334004
3 *58:10 0.000334004
4 *58:10 *113:38 0.000111106
5 *58:10 *131:10 0.000196318
6 *58:10 *135:8 5.39901e-05
7 *58:10 *185:67 5.58003e-05
8 *58:10 *185:77 2.02872e-05
9 *58:10 *233:22 2.42177e-05
*RES
1 *732:Y *58:10 44.8771 
2 *58:10 *764:RESET_B 15 
*END

*D_NET *59 0.0011903
*CONN
*I *765:RESET_B I *D sky130_fd_sc_hd__dfrtp_1
*I *733:Y O *D sky130_fd_sc_hd__inv_2
*CAP
1 *765:RESET_B 0.000176242
2 *733:Y 0.000176242
3 *765:RESET_B *733:A 0.000186038
4 *765:RESET_B *793:A 0.000470009
5 *765:RESET_B *202:10 4.31677e-05
6 *765:RESET_B *209:8 0.0001386
*RES
1 *733:Y *765:RESET_B 29.2661 
*END

*D_NET *60 0.000648865
*CONN
*I *766:RESET_B I *D sky130_fd_sc_hd__dfrtp_1
*I *734:Y O *D sky130_fd_sc_hd__inv_2
*CAP
1 *766:RESET_B 0.000100741
2 *734:Y 6.96504e-05
3 *60:8 0.000170392
4 *766:RESET_B *210:6 5.75029e-05
5 *766:RESET_B *210:12 2.42065e-06
6 *60:8 *79:14 0.000166522
7 *60:8 *185:45 8.16356e-05
*RES
1 *734:Y *60:8 40.2579 
2 *60:8 *766:RESET_B 16.9782 
*END

*D_NET *61 0.000218547
*CONN
*I *767:RESET_B I *D sky130_fd_sc_hd__dfrtp_1
*I *735:Y O *D sky130_fd_sc_hd__inv_2
*CAP
1 *767:RESET_B 0
2 *735:Y 8.63198e-05