*SPEF "ieee 1481-1999"
*DESIGN "alu"
*DATE "13:56:59 Saturday May 10, 2025"
*VENDOR "The OpenROAD Project"
*PROGRAM "OpenROAD"
*VERSION "b16bda7e82721d10566ff7e2b68f1ff0be9f9e38"
*DESIGN_FLOW "NAME_SCOPE LOCAL" "PIN_CAP NONE"
*DIVIDER /
*DELIMITER :
*BUS_DELIMITER []
*T_UNIT 1 NS
*C_UNIT 1 PF
*R_UNIT 1 OHM
*L_UNIT 1 HENRY

*NAME_MAP
*1 A[0]
*2 A[1]
*3 A[2]
*4 A[3]
*5 A[4]
*6 A[5]
*7 A[6]
*8 A[7]
*9 B[0]
*10 B[1]
*11 B[2]
*12 B[3]
*13 B[4]
*14 B[5]
*15 B[6]
*16 B[7]
*19 opcode[0]
*20 opcode[1]
*21 opcode[2]
*22 out[0]
*23 out[1]
*24 out[2]
*25 out[3]
*26 out[4]
*27 out[5]
*28 out[6]
*29 out[7]
*30 _000_
*31 _001_
*32 _002_
*33 _003_
*34 _004_
*35 _005_
*36 _006_
*37 _007_
*38 _008_
*39 _009_
*40 _010_
*41 _011_
*42 _012_
*43 _013_
*44 _014_
*45 _015_
*46 _016_
*47 _017_
*48 _018_
*49 _019_
*50 _020_
*51 _021_
*52 _022_
*53 _023_
*54 _024_
*55 _025_
*56 _026_
*57 _027_
*58 _028_
*59 _029_
*60 _030_
*61 _031_
*62 _032_
*63 _033_
*64 _034_
*65 _035_
*66 _036_
*67 _037_
*68 _038_
*69 _039_
*70 _040_
*71 _041_
*72 _042_
*73 _043_
*74 _044_
*75 _045_
*76 _046_
*77 _047_
*78 _048_
*79 _049_
*80 _050_
*81 _051_
*82 _052_
*83 _053_
*84 _054_
*85 _055_
*86 _056_
*87 _057_
*88 _058_
*89 _059_
*90 _060_
*91 _061_
*92 _062_
*93 _063_
*94 _064_
*95 _065_
*96 _066_
*97 _067_
*98 _068_
*99 _069_
*100 _070_
*101 _071_
*102 _072_
*103 _073_
*104 _074_
*105 _075_
*106 _076_
*107 _077_
*108 _078_
*109 _079_
*110 _080_
*111 _081_
*112 _082_
*113 _083_
*114 _084_
*115 _085_
*116 _086_
*117 _087_
*118 _088_
*119 _089_
*120 _090_
*121 _091_
*122 _092_
*123 _093_
*124 _094_
*125 _095_
*126 _096_
*127 _097_
*128 _098_
*129 _099_
*130 _100_
*131 _101_
*132 _102_
*133 _103_
*134 _104_
*135 _105_
*136 _106_
*137 _107_
*138 _108_
*139 _109_
*140 _110_
*141 _111_
*142 _112_
*143 _113_
*144 _114_
*145 _115_
*146 _116_
*147 _117_
*148 _118_
*149 _119_
*150 _120_
*151 _121_
*152 _122_
*153 _123_
*154 _124_
*155 _125_
*156 _126_
*157 _127_
*158 _128_
*159 _129_
*160 _130_
*161 _131_
*162 _132_
*163 _133_
*164 _134_
*165 _135_
*166 _136_
*167 _137_
*168 _138_
*169 _139_
*170 _140_
*171 _141_
*172 _142_
*173 _143_
*174 _144_
*175 _145_
*176 _146_
*177 _147_
*178 _148_
*179 _149_
*180 _150_
*181 _151_
*182 _152_
*183 _153_
*184 _154_
*185 _155_
*186 _156_
*187 _157_
*188 _158_
*189 _159_
*190 _160_
*191 _161_
*192 _162_
*193 _163_
*194 _164_
*195 _165_
*196 _166_
*197 _167_
*198 _168_
*199 _169_
*200 _170_
*201 _171_
*202 _172_
*203 _173_
*204 _174_
*205 _175_
*206 _176_
*207 _177_
*208 _178_
*209 _179_
*210 _180_
*211 _181_
*212 _182_
*213 _183_
*214 _184_
*215 _185_
*216 _186_
*217 _187_
*218 _188_
*219 _189_
*220 _190_
*221 _191_
*222 _192_
*223 _193_
*224 _194_
*225 _195_
*226 _196_
*227 _197_
*228 _198_
*229 _199_
*230 _200_
*231 _201_
*232 _202_
*233 _203_
*234 _204_
*235 _205_
*236 _206_
*237 _207_
*238 _208_
*239 _209_
*240 _210_
*241 _211_
*242 _212_
*243 _213_
*244 _214_
*245 _215_
*246 _216_
*247 _217_
*248 _218_
*249 _219_
*250 _220_
*251 _221_
*252 _222_
*253 _223_
*254 _224_
*255 _225_
*256 _226_
*257 _227_
*258 _228_
*259 _229_
*260 _230_
*261 _231_
*262 _232_
*263 _233_
*264 _234_
*265 _235_
*266 _236_
*267 _237_
*268 _238_
*269 _239_
*270 _240_
*271 _241_
*272 _242_
*273 _243_
*274 _244_
*275 _245_
*276 _246_
*277 _247_
*278 net1
*279 net10
*280 net11
*281 net12
*282 net13
*283 net14
*284 net15
*285 net16
*286 net17
*287 net18
*288 net19
*289 net2
*290 net20
*291 net21
*292 net22
*293 net23
*294 net24
*295 net25
*296 net26
*297 net27
*298 net28
*299 net29
*300 net3
*301 net30
*302 net31
*303 net32
*304 net33
*305 net34
*306 net35
*307 net36
*308 net37
*309 net38
*310 net39
*311 net4
*312 net40
*313 net41
*314 net5
*315 net6
*316 net7
*317 net8
*318 net9
*319 ANTENNA_1
*320 ANTENNA_2
*321 ANTENNA_3
*322 ANTENNA_4
*323 ANTENNA_5
*324 ANTENNA_6
*325 FILLER_0_0_103
*326 FILLER_0_0_113
*327 FILLER_0_0_129
*328 FILLER_0_0_137
*329 FILLER_0_0_141
*330 FILLER_0_0_153
*331 FILLER_0_0_165
*332 FILLER_0_0_173
*333 FILLER_0_0_177
*334 FILLER_0_0_20
*335 FILLER_0_0_35
*336 FILLER_0_0_47
*337 FILLER_0_0_55
*338 FILLER_0_0_57
*339 FILLER_0_0_67
*340 FILLER_0_0_75
*341 FILLER_0_0_83
*342 FILLER_0_0_85
*343 FILLER_0_0_93
*344 FILLER_0_10_107
*345 FILLER_0_10_119
*346 FILLER_0_10_127
*347 FILLER_0_10_133
*348 FILLER_0_10_139
*349 FILLER_0_10_141
*350 FILLER_0_10_149
*351 FILLER_0_10_166
*352 FILLER_0_10_174
*353 FILLER_0_10_185
*354 FILLER_0_10_189
*355 FILLER_0_10_20
*356 FILLER_0_10_29
*357 FILLER_0_10_33
*358 FILLER_0_10_38
*359 FILLER_0_10_50
*360 FILLER_0_10_54
*361 FILLER_0_10_58
*362 FILLER_0_10_67
*363 FILLER_0_10_79
*364 FILLER_0_10_83
*365 FILLER_0_10_85
*366 FILLER_0_10_9
*367 FILLER_0_10_95
*368 FILLER_0_11_104
*369 FILLER_0_11_113
*370 FILLER_0_11_125
*371 FILLER_0_11_137
*372 FILLER_0_11_149
*373 FILLER_0_11_161
*374 FILLER_0_11_167
*375 FILLER_0_11_176
*376 FILLER_0_11_188
*377 FILLER_0_11_3
*378 FILLER_0_11_38
*379 FILLER_0_11_54
*380 FILLER_0_11_69
*381 FILLER_0_11_81
*382 FILLER_0_11_87
*383 FILLER_0_12_110
*384 FILLER_0_12_122
*385 FILLER_0_12_134
*386 FILLER_0_12_141
*387 FILLER_0_12_15
*388 FILLER_0_12_153
*389 FILLER_0_12_165
*390 FILLER_0_12_175
*391 FILLER_0_12_181
*392 FILLER_0_12_185
*393 FILLER_0_12_38
*394 FILLER_0_12_47
*395 FILLER_0_12_59
*396 FILLER_0_12_67
*397 FILLER_0_12_82
*398 FILLER_0_13_108
*399 FILLER_0_13_11
*400 FILLER_0_13_113
*401 FILLER_0_13_125
*402 FILLER_0_13_137
*403 FILLER_0_13_151
*404 FILLER_0_13_163
*405 FILLER_0_13_167
*406 FILLER_0_13_173
*407 FILLER_0_13_25
*408 FILLER_0_13_3
*409 FILLER_0_13_42
*410 FILLER_0_13_54
*411 FILLER_0_13_57
*412 FILLER_0_13_63
*413 FILLER_0_13_73
*414 FILLER_0_14_109
*415 FILLER_0_14_121
*416 FILLER_0_14_133
*417 FILLER_0_14_139
*418 FILLER_0_14_141
*419 FILLER_0_14_153
*420 FILLER_0_14_161
*421 FILLER_0_14_27
*422 FILLER_0_14_29
*423 FILLER_0_14_3
*424 FILLER_0_14_36
*425 FILLER_0_14_48
*426 FILLER_0_14_60
*427 FILLER_0_14_64
*428 FILLER_0_14_74
*429 FILLER_0_14_82
*430 FILLER_0_14_85
*431 FILLER_0_14_97
*432 FILLER_0_15_106
*433 FILLER_0_15_118
*434 FILLER_0_15_130
*435 FILLER_0_15_136
*436 FILLER_0_15_144
*437 FILLER_0_15_15
*438 FILLER_0_15_167
*439 FILLER_0_15_169
*440 FILLER_0_15_176
*441 FILLER_0_15_28
*442 FILLER_0_15_3
*443 FILLER_0_15_39
*444 FILLER_0_15_45
*445 FILLER_0_15_54
*446 FILLER_0_15_70
*447 FILLER_0_15_82
*448 FILLER_0_15_94
*449 FILLER_0_16_101
*450 FILLER_0_16_109
*451 FILLER_0_16_121
*452 FILLER_0_16_133
*453 FILLER_0_16_139
*454 FILLER_0_16_141
*455 FILLER_0_16_153
*456 FILLER_0_16_159
*457 FILLER_0_16_162
*458 FILLER_0_16_21
*459 FILLER_0_16_27
*460 FILLER_0_16_52
*461 FILLER_0_16_56
*462 FILLER_0_16_64
*463 FILLER_0_16_73
*464 FILLER_0_16_81
*465 FILLER_0_16_85
*466 FILLER_0_16_9
*467 FILLER_0_17_10
*468 FILLER_0_17_111
*469 FILLER_0_17_113
*470 FILLER_0_17_125
*471 FILLER_0_17_133
*472 FILLER_0_17_149
*473 FILLER_0_17_161
*474 FILLER_0_17_167
*475 FILLER_0_17_169
*476 FILLER_0_17_18
*477 FILLER_0_17_187
*478 FILLER_0_17_3
*479 FILLER_0_17_35
*480 FILLER_0_17_50
*481 FILLER_0_17_65
*482 FILLER_0_17_81
*483 FILLER_0_17_89
*484 FILLER_0_17_95
*485 FILLER_0_18_106
*486 FILLER_0_18_11
*487 FILLER_0_18_118
*488 FILLER_0_18_135
*489 FILLER_0_18_139
*490 FILLER_0_18_148
*491 FILLER_0_18_160
*492 FILLER_0_18_22
*493 FILLER_0_18_3
*494 FILLER_0_18_39
*495 FILLER_0_18_54
*496 FILLER_0_18_66
*497 FILLER_0_18_78
*498 FILLER_0_18_85
*499 FILLER_0_18_91
*500 FILLER_0_19_109
*501 FILLER_0_19_11
*502 FILLER_0_19_128
*503 FILLER_0_19_140
*504 FILLER_0_19_152
*505 FILLER_0_19_160
*506 FILLER_0_19_169
*507 FILLER_0_19_175
*508 FILLER_0_19_3
*509 FILLER_0_19_32
*510 FILLER_0_19_48
*511 FILLER_0_19_57
*512 FILLER_0_19_73
*513 FILLER_0_19_85
*514 FILLER_0_19_93
*515 FILLER_0_1_118
*516 FILLER_0_1_122
*517 FILLER_0_1_133
*518 FILLER_0_1_145
*519 FILLER_0_1_157
*520 FILLER_0_1_165
*521 FILLER_0_1_169
*522 FILLER_0_1_180
*523 FILLER_0_1_188
*524 FILLER_0_1_32
*525 FILLER_0_1_40
*526 FILLER_0_1_48
*527 FILLER_0_1_65
*528 FILLER_0_1_73
*529 FILLER_0_1_9
*530 FILLER_0_1_95
*531 FILLER_0_20_105
*532 FILLER_0_20_11
*533 FILLER_0_20_115
*534 FILLER_0_20_123
*535 FILLER_0_20_129
*536 FILLER_0_20_137
*537 FILLER_0_20_141
*538 FILLER_0_20_149
*539 FILLER_0_20_157
*540 FILLER_0_20_169
*541 FILLER_0_20_24
*542 FILLER_0_20_29
*543 FILLER_0_20_3
*544 FILLER_0_20_41
*545 FILLER_0_20_60
*546 FILLER_0_20_76
*547 FILLER_0_20_85
*548 FILLER_0_20_97
*549 FILLER_0_21_101
*550 FILLER_0_21_109
*551 FILLER_0_21_113
*552 FILLER_0_21_119
*553 FILLER_0_21_130
*554 FILLER_0_21_142
*555 FILLER_0_21_154
*556 FILLER_0_21_166
*557 FILLER_0_21_169
*558 FILLER_0_21_181
*559 FILLER_0_21_189
*560 FILLER_0_21_24
*561 FILLER_0_21_36
*562 FILLER_0_21_42
*563 FILLER_0_21_74
*564 FILLER_0_21_80
*565 FILLER_0_21_89
*566 FILLER_0_21_9
*567 FILLER_0_22_107
*568 FILLER_0_22_134
*569 FILLER_0_22_14
*570 FILLER_0_22_149
*571 FILLER_0_22_161
*572 FILLER_0_22_173
*573 FILLER_0_22_185
*574 FILLER_0_22_189
*575 FILLER_0_22_26
*576 FILLER_0_22_29
*577 FILLER_0_22_3
*578 FILLER_0_22_37
*579 FILLER_0_22_43
*580 FILLER_0_22_55
*581 FILLER_0_22_67
*582 FILLER_0_22_79
*583 FILLER_0_22_83
*584 FILLER_0_22_85
*585 FILLER_0_22_95
*586 FILLER_0_23_108
*587 FILLER_0_23_118
*588 FILLER_0_23_149
*589 FILLER_0_23_161
*590 FILLER_0_23_167
*591 FILLER_0_23_186
*592 FILLER_0_23_21
*593 FILLER_0_23_33
*594 FILLER_0_23_46
*595 FILLER_0_23_54
*596 FILLER_0_23_57
*597 FILLER_0_23_69
*598 FILLER_0_23_81
*599 FILLER_0_23_89
*600 FILLER_0_23_9
*601 FILLER_0_23_99
*602 FILLER_0_24_100
*603 FILLER_0_24_119
*604 FILLER_0_24_134
*605 FILLER_0_24_141
*606 FILLER_0_24_15
*607 FILLER_0_24_155
*608 FILLER_0_24_167
*609 FILLER_0_24_179
*610 FILLER_0_24_187
*611 FILLER_0_24_27
*612 FILLER_0_24_3
*613 FILLER_0_24_35
*614 FILLER_0_24_49
*615 FILLER_0_24_55
*616 FILLER_0_24_65
*617 FILLER_0_24_92
*618 FILLER_0_25_101
*619 FILLER_0_25_109
*620 FILLER_0_25_113
*621 FILLER_0_25_119
*622 FILLER_0_25_123
*623 FILLER_0_25_129
*624 FILLER_0_25_141
*625 FILLER_0_25_15
*626 FILLER_0_25_153
*627 FILLER_0_25_165
*628 FILLER_0_25_169
*629 FILLER_0_25_173
*630 FILLER_0_25_185
*631 FILLER_0_25_189
*632 FILLER_0_25_24
*633 FILLER_0_25_3
*634 FILLER_0_25_36
*635 FILLER_0_25_48
*636 FILLER_0_25_65
*637 FILLER_0_25_77
*638 FILLER_0_25_89
*639 FILLER_0_26_105
*640 FILLER_0_26_112
*641 FILLER_0_26_124
*642 FILLER_0_26_13
*643 FILLER_0_26_136
*644 FILLER_0_26_141
*645 FILLER_0_26_145
*646 FILLER_0_26_155
*647 FILLER_0_26_163
*648 FILLER_0_26_175
*649 FILLER_0_26_181
*650 FILLER_0_26_184
*651 FILLER_0_26_25
*652 FILLER_0_26_29
*653 FILLER_0_26_41
*654 FILLER_0_26_53
*655 FILLER_0_26_65
*656 FILLER_0_26_77
*657 FILLER_0_26_83
*658 FILLER_0_26_85
*659 FILLER_0_26_97
*660 FILLER_0_27_107
*661 FILLER_0_27_126
*662 FILLER_0_27_138
*663 FILLER_0_27_145
*664 FILLER_0_27_157
*665 FILLER_0_27_169
*666 FILLER_0_27_175
*667 FILLER_0_27_178
*668 FILLER_0_27_19
*669 FILLER_0_27_27
*670 FILLER_0_27_3
*671 FILLER_0_27_35
*672 FILLER_0_27_43
*673 FILLER_0_27_52
*674 FILLER_0_27_63
*675 FILLER_0_27_75
*676 FILLER_0_27_83
*677 FILLER_0_27_95
*678 FILLER_0_2_103
*679 FILLER_0_2_115
*680 FILLER_0_2_130
*681 FILLER_0_2_138
*682 FILLER_0_2_141
*683 FILLER_0_2_153
*684 FILLER_0_2_172
*685 FILLER_0_2_186
*686 FILLER_0_2_22
*687 FILLER_0_2_29
*688 FILLER_0_2_39
*689 FILLER_0_2_51
*690 FILLER_0_2_58
*691 FILLER_0_2_70
*692 FILLER_0_2_9
*693 FILLER_0_2_91
*694 FILLER_0_3_110
*695 FILLER_0_3_113
*696 FILLER_0_3_126
*697 FILLER_0_3_138
*698 FILLER_0_3_150
*699 FILLER_0_3_162
*700 FILLER_0_3_173
*701 FILLER_0_3_185
*702 FILLER_0_3_3
*703 FILLER_0_3_52
*704 FILLER_0_3_57
*705 FILLER_0_3_69
*706 FILLER_0_3_7
*707 FILLER_0_3_77
*708 FILLER_0_3_90
*709 FILLER_0_3_98
*710 FILLER_0_4_119
*711 FILLER_0_4_131
*712 FILLER_0_4_139
*713 FILLER_0_4_141
*714 FILLER_0_4_150
*715 FILLER_0_4_158
*716 FILLER_0_4_170
*717 FILLER_0_4_182
*718 FILLER_0_4_20
*719 FILLER_0_4_36
*720 FILLER_0_4_52
*721 FILLER_0_4_74
*722 FILLER_0_4_82
*723 FILLER_0_4_85
*724 FILLER_0_5_101
*725 FILLER_0_5_109
*726 FILLER_0_5_113
*727 FILLER_0_5_120
*728 FILLER_0_5_126
*729 FILLER_0_5_138
*730 FILLER_0_5_15
*731 FILLER_0_5_150
*732 FILLER_0_5_154
*733 FILLER_0_5_174
*734 FILLER_0_5_180
*735 FILLER_0_5_186
*736 FILLER_0_5_21
*737 FILLER_0_5_3
*738 FILLER_0_5_47
*739 FILLER_0_5_55
*740 FILLER_0_5_79
*741 FILLER_0_5_83
*742 FILLER_0_5_89
*743 FILLER_0_6_100
*744 FILLER_0_6_106
*745 FILLER_0_6_11
*746 FILLER_0_6_115
*747 FILLER_0_6_125
*748 FILLER_0_6_137
*749 FILLER_0_6_141
*750 FILLER_0_6_162
*751 FILLER_0_6_173
*752 FILLER_0_6_177
*753 FILLER_0_6_18
*754 FILLER_0_6_185
*755 FILLER_0_6_189
*756 FILLER_0_6_3
*757 FILLER_0_6_36
*758 FILLER_0_6_48
*759 FILLER_0_6_54
*760 FILLER_0_6_92
*761 FILLER_0_7_100
*762 FILLER_0_7_113
*763 FILLER_0_7_119
*764 FILLER_0_7_123
*765 FILLER_0_7_135
*766 FILLER_0_7_147
*767 FILLER_0_7_15
*768 FILLER_0_7_159
*769 FILLER_0_7_167
*770 FILLER_0_7_169
*771 FILLER_0_7_181
*772 FILLER_0_7_189
*773 FILLER_0_7_23
*774 FILLER_0_7_3
*775 FILLER_0_7_37
*776 FILLER_0_7_51
*777 FILLER_0_7_55
*778 FILLER_0_7_57
*779 FILLER_0_7_69
*780 FILLER_0_7_80
*781 FILLER_0_7_88
*782 FILLER_0_8_109
*783 FILLER_0_8_121
*784 FILLER_0_8_131
*785 FILLER_0_8_139
*786 FILLER_0_8_141
*787 FILLER_0_8_153
*788 FILLER_0_8_165
*789 FILLER_0_8_177
*790 FILLER_0_8_185
*791 FILLER_0_8_19
*792 FILLER_0_8_27
*793 FILLER_0_8_29
*794 FILLER_0_8_44
*795 FILLER_0_8_56
*796 FILLER_0_8_7
*797 FILLER_0_8_80
*798 FILLER_0_8_85
*799 FILLER_0_8_97
*800 FILLER_0_9_101
*801 FILLER_0_9_105
*802 FILLER_0_9_110
*803 FILLER_0_9_118
*804 FILLER_0_9_130
*805 FILLER_0_9_15
*806 FILLER_0_9_151
*807 FILLER_0_9_163
*808 FILLER_0_9_167
*809 FILLER_0_9_169
*810 FILLER_0_9_176
*811 FILLER_0_9_188
*812 FILLER_0_9_27
*813 FILLER_0_9_3
*814 FILLER_0_9_33
*815 FILLER_0_9_44
*816 FILLER_0_9_57
*817 FILLER_0_9_91
*818 PHY_EDGE_ROW_0_Left_28
*819 PHY_EDGE_ROW_0_Right_0
*820 PHY_EDGE_ROW_10_Left_38
*821 PHY_EDGE_ROW_10_Right_10
*822 PHY_EDGE_ROW_11_Left_39
*823 PHY_EDGE_ROW_11_Right_11
*824 PHY_EDGE_ROW_12_Left_40
*825 PHY_EDGE_ROW_12_Right_12
*826 PHY_EDGE_ROW_13_Left_41
*827 PHY_EDGE_ROW_13_Right_13
*828 PHY_EDGE_ROW_14_Left_42
*829 PHY_EDGE_ROW_14_Right_14
*830 PHY_EDGE_ROW_15_Left_43
*831 PHY_EDGE_ROW_15_Right_15
*832 PHY_EDGE_ROW_16_Left_44
*833 PHY_EDGE_ROW_16_Right_16
*834 PHY_EDGE_ROW_17_Left_45
*835 PHY_EDGE_ROW_17_Right_17
*836 PHY_EDGE_ROW_18_Left_46
*837 PHY_EDGE_ROW_18_Right_18
*838 PHY_EDGE_ROW_19_Left_47
*839 PHY_EDGE_ROW_19_Right_19
*840 PHY_EDGE_ROW_1_Left_29
*841 PHY_EDGE_ROW_1_Right_1
*842 PHY_EDGE_ROW_20_Left_48
*843 PHY_EDGE_ROW_20_Right_20
*844 PHY_EDGE_ROW_21_Left_49
*845 PHY_EDGE_ROW_21_Right_21
*846 PHY_EDGE_ROW_22_Left_50
*847 PHY_EDGE_ROW_22_Right_22
*848 PHY_EDGE_ROW_23_Left_51
*849 PHY_EDGE_ROW_23_Right_23
*850 PHY_EDGE_ROW_24_Left_52
*851 PHY_EDGE_ROW_24_Right_24
*852 PHY_EDGE_ROW_25_Left_53
*853 PHY_EDGE_ROW_25_Right_25
*854 PHY_EDGE_ROW_26_Left_54
*855 PHY_EDGE_ROW_26_Right_26
*856 PHY_EDGE_ROW_27_Left_55
*857 PHY_EDGE_ROW_27_Right_27
*858 PHY_EDGE_ROW_2_Left_30
*859 PHY_EDGE_ROW_2_Right_2
*860 PHY_EDGE_ROW_3_Left_31
*861 PHY_EDGE_ROW_3_Right_3
*862 PHY_EDGE_ROW_4_Left_32
*863 PHY_EDGE_ROW_4_Right_4
*864 PHY_EDGE_ROW_5_Left_33
*865 PHY_EDGE_ROW_5_Right_5
*866 PHY_EDGE_ROW_6_Left_34
*867 PHY_EDGE_ROW_6_Right_6
*868 PHY_EDGE_ROW_7_Left_35
*869 PHY_EDGE_ROW_7_Right_7
*870 PHY_EDGE_ROW_8_Left_36
*871 PHY_EDGE_ROW_8_Right_8
*872 PHY_EDGE_ROW_9_Left_37
*873 PHY_EDGE_ROW_9_Right_9
*874 TAP_TAPCELL_ROW_0_56
*875 TAP_TAPCELL_ROW_0_57
*876 TAP_TAPCELL_ROW_0_58
*877 TAP_TAPCELL_ROW_0_59
*878 TAP_TAPCELL_ROW_0_60
*879 TAP_TAPCELL_ROW_0_61
*880 TAP_TAPCELL_ROW_10_89
*881 TAP_TAPCELL_ROW_10_90
*882 TAP_TAPCELL_ROW_10_91
*883 TAP_TAPCELL_ROW_11_92
*884 TAP_TAPCELL_ROW_11_93
*885 TAP_TAPCELL_ROW_11_94
*886 TAP_TAPCELL_ROW_12_95
*887 TAP_TAPCELL_ROW_12_96
*888 TAP_TAPCELL_ROW_12_97
*889 TAP_TAPCELL_ROW_13_100
*890 TAP_TAPCELL_ROW_13_98
*891 TAP_TAPCELL_ROW_13_99
*892 TAP_TAPCELL_ROW_14_101
*893 TAP_TAPCELL_ROW_14_102
*894 TAP_TAPCELL_ROW_14_103
*895 TAP_TAPCELL_ROW_15_104
*896 TAP_TAPCELL_ROW_15_105
*897 TAP_TAPCELL_ROW_15_106
*898 TAP_TAPCELL_ROW_16_107
*899 TAP_TAPCELL_ROW_16_108
*900 TAP_TAPCELL_ROW_16_109
*901 TAP_TAPCELL_ROW_17_110
*902 TAP_TAPCELL_ROW_17_111
*903 TAP_TAPCELL_ROW_17_112
*904 TAP_TAPCELL_ROW_18_113
*905 TAP_TAPCELL_ROW_18_114
*906 TAP_TAPCELL_ROW_18_115
*907 TAP_TAPCELL_ROW_19_116
*908 TAP_TAPCELL_ROW_19_117
*909 TAP_TAPCELL_ROW_19_118
*910 TAP_TAPCELL_ROW_1_62
*911 TAP_TAPCELL_ROW_1_63
*912 TAP_TAPCELL_ROW_1_64
*913 TAP_TAPCELL_ROW_20_119
*914 TAP_TAPCELL_ROW_20_120
*915 TAP_TAPCELL_ROW_20_121
*916 TAP_TAPCELL_ROW_21_122
*917 TAP_TAPCELL_ROW_21_123
*918 TAP_TAPCELL_ROW_21_124
*919 TAP_TAPCELL_ROW_22_125
*920 TAP_TAPCELL_ROW_22_126
*921 TAP_TAPCELL_ROW_22_127
*922 TAP_TAPCELL_ROW_23_128
*923 TAP_TAPCELL_ROW_23_129
*924 TAP_TAPCELL_ROW_23_130
*925 TAP_TAPCELL_ROW_24_131
*926 TAP_TAPCELL_ROW_24_132
*927 TAP_TAPCELL_ROW_24_133
*928 TAP_TAPCELL_ROW_25_134
*929 TAP_TAPCELL_ROW_25_135
*930 TAP_TAPCELL_ROW_25_136
*931 TAP_TAPCELL_ROW_26_137
*932 TAP_TAPCELL_ROW_26_138
*933 TAP_TAPCELL_ROW_26_139
*934 TAP_TAPCELL_ROW_27_140
*935 TAP_TAPCELL_ROW_27_141
*936 TAP_TAPCELL_ROW_27_142
*937 TAP_TAPCELL_ROW_27_143
*938 TAP_TAPCELL_ROW_27_144
*939 TAP_TAPCELL_ROW_27_145
*940 TAP_TAPCELL_ROW_2_65
*941 TAP_TAPCELL_ROW_2_66
*942 TAP_TAPCELL_ROW_2_67
*943 TAP_TAPCELL_ROW_3_68
*944 TAP_TAPCELL_ROW_3_69
*945 TAP_TAPCELL_ROW_3_70
*946 TAP_TAPCELL_ROW_4_71
*947 TAP_TAPCELL_ROW_4_72
*948 TAP_TAPCELL_ROW_4_73
*949 TAP_TAPCELL_ROW_5_74
*950 TAP_TAPCELL_ROW_5_75
*951 TAP_TAPCELL_ROW_5_76
*952 TAP_TAPCELL_ROW_6_77
*953 TAP_TAPCELL_ROW_6_78
*954 TAP_TAPCELL_ROW_6_79
*955 TAP_TAPCELL_ROW_7_80
*956 TAP_TAPCELL_ROW_7_81
*957 TAP_TAPCELL_ROW_7_82
*958 TAP_TAPCELL_ROW_8_83
*959 TAP_TAPCELL_ROW_8_84
*960 TAP_TAPCELL_ROW_8_85
*961 TAP_TAPCELL_ROW_9_86
*962 TAP_TAPCELL_ROW_9_87
*963 TAP_TAPCELL_ROW_9_88
*964 _248_
*965 _249_
*966 _250_
*967 _251_
*968 _252_
*969 _253_
*970 _254_
*971 _255_
*972 _256_
*973 _257_
*974 _258_
*975 _259_
*976 _260_
*977 _261_
*978 _262_
*979 _263_
*980 _264_
*981 _265_
*982 _266_
*983 _267_
*984 _268_
*985 _269_
*986 _270_
*987 _271_
*988 _272_
*989 _273_
*990 _274_
*991 _275_
*992 _276_
*993 _277_
*994 _278_
*995 _279_
*996 _280_
*997 _281_
*998 _282_
*999 _283_
*1000 _284_
*1001 _285_
*1002 _286_
*1003 _287_
*1004 _288_
*1005 _289_
*1006 _290_
*1007 _291_
*1008 _292_
*1009 _293_
*1010 _294_
*1011 _295_
*1012 _296_
*1013 _297_
*1014 _298_
*1015 _299_
*1016 _300_
*1017 _301_
*1018 _302_
*1019 _303_
*1020 _304_
*1021 _305_
*1022 _306_
*1023 _307_
*1024 _308_
*1025 _309_
*1026 _310_
*1027 _311_
*1028 _312_
*1029 _313_
*1030 _314_
*1031 _315_
*1032 _316_
*1033 _317_
*1034 _318_
*1035 _319_
*1036 _320_
*1037 _321_
*1038 _322_
*1039 _323_
*1040 _324_
*1041 _325_
*1042 _326_
*1043 _327_
*1044 _328_
*1045 _329_
*1046 _330_
*1047 _331_
*1048 _332_
*1049 _333_
*1050 _334_
*1051 _335_
*1052 _336_
*1053 _337_
*1054 _338_
*1055 _339_
*1056 _340_
*1057 _341_
*1058 _342_
*1059 _343_
*1060 _344_
*1061 _345_
*1062 _346_
*1063 _347_
*1064 _348_
*1065 _349_
*1066 _350_
*1067 _351_
*1068 _352_
*1069 _353_
*1070 _354_
*1071 _355_
*1072 _356_
*1073 _357_
*1074 _358_
*1075 _359_
*1076 _360_
*1077 _361_
*1078 _362_
*1079 _363_
*1080 _364_
*1081 _365_
*1082 _366_
*1083 _367_
*1084 _368_
*1085 _369_
*1086 _370_
*1087 _371_
*1088 _372_
*1089 _373_
*1090 _374_
*1091 _375_
*1092 _376_
*1093 _377_
*1094 _378_
*1095 _379_
*1096 _380_
*1097 _381_
*1098 _382_
*1099 _383_
*1100 _384_
*1101 _385_
*1102 _386_
*1103 _387_
*1104 _388_
*1105 _389_
*1106 _390_
*1107 _391_
*1108 _392_
*1109 _393_
*1110 _394_
*1111 _395_
*1112 _396_
*1113 _397_
*1114 _398_
*1115 _399_
*1116 _400_
*1117 _401_
*1118 _402_
*1119 _403_
*1120 _404_
*1121 _405_
*1122 _406_
*1123 _407_
*1124 _408_
*1125 _409_
*1126 _410_
*1127 _411_
*1128 _412_
*1129 _413_
*1130 _414_
*1131 _415_
*1132 _416_
*1133 _417_
*1134 _418_
*1135 _419_
*1136 _420_
*1137 _421_
*1138 _422_
*1139 _423_
*1140 _424_
*1141 _425_
*1142 _426_
*1143 _427_
*1144 _428_
*1145 _429_
*1146 _430_
*1147 _431_
*1148 _432_
*1149 _433_
*1150 _434_
*1151 _435_
*1152 _436_
*1153 _437_
*1154 _438_
*1155 _439_
*1156 _440_
*1157 _441_
*1158 _442_
*1159 _443_
*1160 _444_
*1161 _445_
*1162 _446_
*1163 _447_
*1164 _448_
*1165 _449_
*1166 _450_
*1167 _451_
*1168 _452_
*1169 _453_
*1170 _454_
*1171 _455_
*1172 _456_
*1173 _457_
*1174 _458_
*1175 _459_
*1176 _460_
*1177 _461_
*1178 _462_
*1179 _463_
*1180 _464_
*1181 _465_
*1182 _466_
*1183 _467_
*1184 _468_
*1185 _469_
*1186 _470_
*1187 _471_
*1188 _472_
*1189 _473_
*1190 _474_
*1191 _475_
*1192 _476_
*1193 _477_
*1194 _478_
*1195 _479_
*1196 _480_
*1197 _481_
*1198 _482_
*1199 _483_
*1200 _484_
*1201 _485_
*1202 _486_
*1203 _487_
*1204 _488_
*1205 _489_
*1206 _490_
*1207 _491_
*1208 _492_
*1209 _493_
*1210 _494_
*1211 _495_
*1212 _496_
*1213 _497_
*1214 _498_
*1215 _499_
*1216 _500_
*1217 _501_
*1218 _502_
*1219 _503_
*1220 clone7
*1221 input1
*1222 input10
*1223 input11
*1224 input12
*1225 input13
*1226 input14
*1227 input15
*1228 input16
*1229 input17
*1230 input18
*1231 input19
*1232 input2
*1233 input3
*1234 input4
*1235 input5
*1236 input6
*1237 input7
*1238 input8
*1239 input9
*1240 max_cap28
*1241 output20
*1242 output21
*1243 output22
*1244 output23
*1245 output24
*1246 output25
*1247 output26
*1248 output27
*1249 rebuffer1
*1250 rebuffer10
*1251 rebuffer11
*1252 rebuffer12
*1253 rebuffer13
*1254 rebuffer2
*1255 rebuffer3
*1256 rebuffer4
*1257 rebuffer5
*1258 rebuffer6
*1259 rebuffer8
*1260 rebuffer9

*PORTS
A[0] I
A[1] I
A[2] I
A[3] I
A[4] I
A[5] I
A[6] I
A[7] I
B[0] I
B[1] I
B[2] I
B[3] I
B[4] I
B[5] I
B[6] I
B[7] I
opcode[0] I
opcode[1] I
opcode[2] I
out[0] O
out[1] O
out[2] O
out[3] O
out[4] O
out[5] O
out[6] O
out[7] O

*D_NET *1 0.00408358
*CONN
*P A[0] I
*I *1221:A I *D sky130_fd_sc_hd__clkbuf_4
*CAP
1 A[0] 0.000755339
2 *1221:A 0
3 *1:13 0.000755339
4 *1:13 *990:B_N 0.00027791
5 *1:13 *35:39 5.77428e-05
6 *1:13 *36:53 0.000962083
7 *1:13 *38:27 0
8 *1:13 *55:6 0.000276209
9 *1:13 *91:64 0.000140203
10 *1:13 *104:14 0
11 *1:13 *133:51 0
12 *1:13 *155:32 0.000107421
13 *1:13 *314:89 0.000751331
*RES
1 A[0] *1:13 35.233 
2 *1:13 *1221:A 23 
*END

*D_NET *2 0.00111372
*CONN
*P A[1] I
*I *1232:A I *D sky130_fd_sc_hd__clkbuf_4
*CAP
1 A[1] 0.000442131
2 *1232:A 0.000442131
3 *1232:A *35:39 7.45498e-05
4 *1232:A *91:60 0.000154913
*RES
1 A[1] *1232:A 48.9255 
*END

*D_NET *3 0.00126436
*CONN
*P A[2] I
*I *1233:A I *D sky130_fd_sc_hd__clkbuf_4
*CAP
1 A[2] 0.000429476
2 *1233:A 0.000429476
3 *1233:A *55:26 0
4 *1233:A *106:59 3.71725e-05
5 *1233:A *121:32 0.000172829
6 *1233:A *197:36 9.77027e-05
7 *1233:A *285:22 9.77027e-05
*RES
1 A[2] *1233:A 48.2212 
*END

*D_NET *4 0.00107233
*CONN
*P A[3] I
*I *1234:A I *D sky130_fd_sc_hd__buf_4
*CAP
1 A[3] 0.000461813
2 *1234:A 0.000461813
3 *1234:A *55:26 0
4 *1234:A *90:50 6.10005e-05
5 *1234:A *96:32 4.80423e-06
6 *1234:A *115:20 3.55303e-05
7 *1234:A *173:32 4.73652e-05
*RES
1 A[3] *1234:A 47.4311 
*END

*D_NET *5 0.00186022
*CONN
*P A[4] I
*I *1235:A I *D sky130_fd_sc_hd__buf_4
*CAP
1 A[4] 0.000698324
2 *1235:A 0.000698324
3 *1235:A *1101:B1 7.7703e-05
4 *1235:A *91:45 2.24182e-05
5 *1235:A *106:12 3.48587e-05
6 *1235:A *173:48 6.09613e-06
7 *1235:A *309:24 2.05503e-05
8 *1235:A *311:14 2.30303e-05
9 *1235:A *314:89 0.000204962
10 *1235:A *315:62 7.39525e-05
*RES
1 A[4] *1235:A 48.2984 
*END

*D_NET *6 0.0013756
*CONN
*P A[5] I
*I *1236:A I *D sky130_fd_sc_hd__clkbuf_2
*CAP
1 A[5] 0.000478411
2 *1236:A 0.000478411
3 *1236:A *90:26 0.000151025
4 *1236:A *91:31 3.31365e-05
5 *1236:A *111:42 0.000155375
6 *1236:A *195:42 7.20379e-05
7 *1236:A *197:78 7.20213e-06
*RES
1 A[5] *1236:A 48.9255 
*END

*D_NET *7 0.00122047
*CONN
*P A[6] I
*I *1237:A I *D sky130_fd_sc_hd__buf_4
*CAP
1 A[6] 0.000356195
2 *1237:A 0.000356195
3 *1237:A *95:50 0.00010554
4 *1237:A *155:32 0
5 *1237:A *198:32 0.00014437
6 *1237:A *264:26 0.00014437
7 *1237:A *277:20 0.000113802
*RES
1 A[6] *1237:A 48.8397 
*END

*D_NET *8 0.00240802
*CONN
*P A[7] I
*I *1238:A I *D sky130_fd_sc_hd__buf_2
*CAP
1 A[7] 0.000652198
2 *1238:A 0
3 *8:13 0.000652198
4 *8:13 *55:74 6.99456e-05
5 *8:13 *106:36 0
6 *8:13 *121:20 0.000122758
7 *8:13 *139:38 0.000391227
8 *8:13 *142:12 0
9 *8:13 *171:20 5.73309e-05
10 *8:13 *201:10 0.0003414
11 *8:13 *227:52 2.18506e-05
12 *8:13 *237:51 9.91101e-05
13 *8:13 *264:26 0
*RES
1 A[7] *8:13 31.0513 
2 *8:13 *1238:A 23 
*END

*D_NET *9 0.00113019
*CONN
*P B[0] I
*I *1239:A I *D sky130_fd_sc_hd__buf_4
*CAP
1 B[0] 0.000525387
2 *1239:A 0.000525387
3 *1239:A *104:14 7.94176e-05
4 *1239:A *276:36 0
*RES
1 B[0] *1239:A 49.4343 
*END

*D_NET *10 0.00151746
*CONN
*P B[1] I
*I *1222:A I *D sky130_fd_sc_hd__buf_6
*CAP
1 B[1] 0.000549153
2 *1222:A 0
3 *10:9 0.000549153
4 *10:9 *95:99 0
5 *10:9 *168:40 0
6 *10:9 *169:20 0
7 *10:9 *191:37 7.73389e-05
8 *10:9 *215:118 0.000193564
9 *10:9 *276:46 0.000148254
*RES
1 B[1] *10:9 27.3871 
2 *10:9 *1222:A 23 
*END

*D_NET *11 0.00181856
*CONN
*P B[2] I
*I *1223:A I *D sky130_fd_sc_hd__buf_2
*CAP
1 B[2] 0.000699189
2 *1223:A 0
3 *11:9 0.000699189
4 *11:9 *57:14 0
5 *11:9 *169:12 0.00012388
6 *11:9 *191:37 0.000126784
7 *11:9 *211:27 0.000169515
*RES
1 B[2] *11:9 28.34 
2 *11:9 *1223:A 23 
*END

*D_NET *12 0.00163292
*CONN
*P B[3] I
*I *1224:A I *D sky130_fd_sc_hd__buf_2
*CAP
1 B[3] 0.000695026
2 *1224:A 0.000695026
3 *1224:A *1201:A 5.67058e-05
4 *1224:A *52:28 5.50049e-05
5 *1224:A *68:26 0.000114958
6 *1224:A *95:81 0
7 *1224:A *215:108 1.61989e-05
*RES
1 B[3] *1224:A 49.4343 
*END

*D_NET *13 0.002475
*CONN
*P B[4] I
*I *1225:A I *D sky130_fd_sc_hd__clkbuf_2
*CAP
1 B[4] 0.000811405
2 *1225:A 0
3 *13:9 0.000811405
4 *13:9 *1062:A 9.75779e-05
5 *13:9 *1062:B 4.95081e-05
6 *13:9 *55:6 0.000184324
7 *13:9 *89:6 9.14812e-05
8 *13:9 *125:18 0.000374293
9 *13:9 *168:50 0
10 *13:9 *169:12 5.50106e-05
*RES
1 B[4] *13:9 30.37 
2 *13:9 *1225:A 23 
*END

*D_NET *14 0.00205642
*CONN
*P B[5] I
*I *1226:A I *D sky130_fd_sc_hd__clkbuf_4
*CAP
1 B[5] 0.000541212
2 *1226:A 0
3 *14:9 0.000541212
4 *14:9 *55:6 0.000139357
5 *14:9 *57:20 0.000545144
6 *14:9 *95:75 0
7 *14:9 *211:43 0
8 *14:9 *260:47 0.000148443
9 *14:9 *284:10 0.000141052
*RES
1 B[5] *14:9 27.035 
2 *14:9 *1226:A 23 
*END

*D_NET *15 0.00153344
*CONN
*P B[6] I
*I *1227:A I *D sky130_fd_sc_hd__clkbuf_4
*CAP
1 B[6] 0.000545684
2 *1227:A 0.000545684
3 *1227:A *40:12 3.02036e-05
4 *1227:A *55:6 9.67842e-05
5 *1227:A *102:60 2.15048e-05
6 *1227:A *133:51 0
7 *1227:A *136:62 0
8 *1227:A *197:20 0.000293582
*RES
1 B[6] *1227:A 49.5586 
*END

*D_NET *16 0.00299925
*CONN
*P B[7] I
*I *1228:A I *D sky130_fd_sc_hd__clkbuf_2
*CAP
1 B[7] 0.000621888
2 *1228:A 0
3 *16:9 0.000621888
4 *16:9 *35:39 0.000696648
5 *16:9 *36:53 0.000858687
6 *16:9 *91:60 0
7 *16:9 *285:16 0.000100069
8 *16:9 *289:8 0.000100069
*RES
1 B[7] *16:9 33.415 
2 *16:9 *1228:A 23 
*END

*D_NET *19 0.00130725
*CONN
*P opcode[0] I
*I *1229:A I *D sky130_fd_sc_hd__buf_2
*CAP
1 opcode[0] 0.000439224
2 *1229:A 0.000439224
3 *1229:A *44:28 0.000285818
4 *1229:A *64:20 0
5 *1229:A *94:30 5.3304e-05
6 *1229:A *142:49 0
7 *1229:A *164:26 8.96775e-05
8 *1229:A *278:130 0
*RES
1 opcode[0] *1229:A 47.3214 
*END

*D_NET *20 0.00151449
*CONN
*P opcode[1] I
*I *1230:A I *D sky130_fd_sc_hd__clkbuf_4
*CAP
1 opcode[1] 0.000651306
2 *1230:A 0.000651306
3 *1230:A *76:18 0.000113396
4 *1230:A *98:26 9.84851e-05
5 *1230:A *201:22 0
*RES
1 opcode[1] *1230:A 47.4457 
*END

*D_NET *21 0.0016165
*CONN
*P opcode[2] I
*I *1231:A I *D sky130_fd_sc_hd__clkbuf_4
*CAP
1 opcode[2] 0.0005113
2 *1231:A 0.0005113
3 *1231:A *1054:A3 9.57388e-05
4 *1231:A *43:85 0.000227484
5 *1231:A *162:32 0
6 *1231:A *237:51 0.000270682
*RES
1 opcode[2] *1231:A 49.3514 
*END

*D_NET *22 0.00230931
*CONN
*P out[0] O
*I *1241:X O *D sky130_fd_sc_hd__buf_2
*CAP
1 out[0] 0.000498363
2 *1241:X 0.000401038
3 *22:10 0.000899401
4 out[0] *104:14 0
5 *22:10 *1241:A 5.68958e-05
6 *22:10 *104:14 0
7 *22:10 *314:95 0.000453615
*RES
1 *1241:X *22:10 46.7104 
2 *22:10 out[0] 9.78827 
*END

*D_NET *23 0.000781291
*CONN
*P out[1] O
*I *1242:X O *D sky130_fd_sc_hd__buf_2
*CAP
1 out[1] 0.00032554
2 *1242:X 0.00032554
3 out[1] *104:14 0.000130212
*RES
1 *1242:X out[1] 48.6592 
*END

*D_NET *24 0.00108095
*CONN
*P out[2] O
*I *1243:X O *D sky130_fd_sc_hd__buf_2
*CAP
1 out[2] 0.000388252
2 *1243:X 0.000388252
3 out[2] *104:14 7.06825e-05
4 out[2] *231:26 0.000136953
5 out[2] *296:30 9.68072e-05
*RES
1 *1243:X out[2] 47.955 
*END

*D_NET *25 0.00307476
*CONN
*P out[3] O
*I *1244:X O *D sky130_fd_sc_hd__buf_2
*CAP
1 out[3] 0.000685271
2 *1244:X 0.000471157
3 *25:10 0.00115643
4 out[3] *36:47 0.000117248
5 out[3] *78:14 0
6 out[3] *99:45 6.09731e-05
7 *25:10 *1154:C1 5.66906e-05
8 *25:10 *68:72 2.11066e-05
9 *25:10 *68:88 9.04879e-05
10 *25:10 *71:28 2.27197e-05
11 *25:10 *144:69 0.000135037
12 *25:10 *239:39 0.000257636
*RES
1 *1244:X *25:10 46.5654 
2 *25:10 out[3] 9.35893 
*END

*D_NET *26 0.00103789
*CONN
*P out[4] O
*I *1245:X O *D sky130_fd_sc_hd__buf_2
*CAP
1 out[4] 0.000435072
2 *1245:X 0.000435072
3 out[4] *34:96 3.33777e-05
4 out[4] *78:14 0
5 out[4] *94:32 2.26497e-05
6 out[4] *99:53 2.44846e-05
7 out[4] *124:43 5.06545e-05
8 out[4] *230:124 3.65768e-05
*RES
1 *1245:X out[4] 47.2507 
*END

*D_NET *27 0.00120181
*CONN
*P out[5] O
*I *1246:X O *D sky130_fd_sc_hd__buf_2
*CAP
1 out[5] 0.00047201
2 *1246:X 0.00047201
3 out[5] *94:32 0.00012758
4 out[5] *99:53 0.000130212
*RES
1 *1246:X out[5] 48.6592 
*END

*D_NET *28 0.000895017
*CONN
*P out[6] O
*I *1247:X O *D sky130_fd_sc_hd__buf_2
*CAP
1 out[6] 0.000315206
2 *1247:X 0.000315206
3 out[6] *94:32 2.26497e-05
4 out[6] *256:18 2.44846e-05
5 out[6] *296:30 0.00021747
*RES
1 *1247:X out[6] 47.2507 
*END

*D_NET *29 0.00132397
*CONN
*P out[7] O
*I *1248:X O *D sky130_fd_sc_hd__buf_8
*CAP
1 out[7] 0.00020424
2 *1248:X 0.000194185
3 *29:8 0.000398426
4 out[7] *292:22 0.000210894
5 *29:8 *256:18 0.000316227
*RES
1 *1248:X *29:8 42.8989 
2 *29:8 out[7] 9.01547 
*END

*D_NET *30 0.0046691
*CONN
*I *1055:B1 I *D sky130_fd_sc_hd__o2bb2a_1
*I *1036:X O *D sky130_fd_sc_hd__and3b_1
*CAP
1 *1055:B1 0