*SPEF "ieee 1481-1999"
*DESIGN "TopModule"
*DATE "18:00:24 Saturday May 31, 2025"
*VENDOR "The OpenROAD Project"
*PROGRAM "OpenROAD"
*VERSION "b16bda7e82721d10566ff7e2b68f1ff0be9f9e38"
*DESIGN_FLOW "NAME_SCOPE LOCAL" "PIN_CAP NONE"
*DIVIDER /
*DELIMITER :
*BUS_DELIMITER []
*T_UNIT 1 NS
*C_UNIT 1 PF
*R_UNIT 1 OHM
*L_UNIT 1 HENRY

*NAME_MAP
*1 net1
*2 net11
*3 net12
*4 net13
*5 net14
*6 net15
*7 net16
*8 net17
*9 net18
*10 net19
*11 net20
*12 net2
*13 net21
*14 net22
*15 net23
*16 net24
*17 net25
*18 net26
*19 net27
*20 net28
*21 net29
*22 net30
*23 net3
*24 net31
*25 net32
*26 net4
*27 net5
*28 net6
*29 net7
*30 net8
*31 net9
*32 net10
*35 clk
*36 control
*37 reset
*38 FILLER_0_0_109
*39 FILLER_0_0_113
*40 FILLER_0_0_125
*41 FILLER_0_0_137
*42 FILLER_0_0_141
*43 FILLER_0_0_15
*44 FILLER_0_0_153
*45 FILLER_0_0_165
*46 FILLER_0_0_169
*47 FILLER_0_0_181
*48 FILLER_0_0_193
*49 FILLER_0_0_197
*50 FILLER_0_0_209
*51 FILLER_0_0_221
*52 FILLER_0_0_225
*53 FILLER_0_0_237
*54 FILLER_0_0_249
*55 FILLER_0_0_253
*56 FILLER_0_0_265
*57 FILLER_0_0_27
*58 FILLER_0_0_277
*59 FILLER_0_0_281
*60 FILLER_0_0_29
*61 FILLER_0_0_293
*62 FILLER_0_0_3
*63 FILLER_0_0_305
*64 FILLER_0_0_309
*65 FILLER_0_0_321
*66 FILLER_0_0_333
*67 FILLER_0_0_337
*68 FILLER_0_0_349
*69 FILLER_0_0_361
*70 FILLER_0_0_365
*71 FILLER_0_0_377
*72 FILLER_0_0_389
*73 FILLER_0_0_393
*74 FILLER_0_0_405
*75 FILLER_0_0_41
*76 FILLER_0_0_417
*77 FILLER_0_0_421
*78 FILLER_0_0_433
*79 FILLER_0_0_445
*80 FILLER_0_0_449
*81 FILLER_0_0_461
*82 FILLER_0_0_473
*83 FILLER_0_0_477
*84 FILLER_0_0_489
*85 FILLER_0_0_501
*86 FILLER_0_0_505
*87 FILLER_0_0_517
*88 FILLER_0_0_53
*89 FILLER_0_0_57
*90 FILLER_0_0_69
*91 FILLER_0_0_81
*92 FILLER_0_0_85
*93 FILLER_0_0_97
*94 FILLER_0_10_109
*95 FILLER_0_10_121
*96 FILLER_0_10_133
*97 FILLER_0_10_139
*98 FILLER_0_10_141
*99 FILLER_0_10_15
*100 FILLER_0_10_153
*101 FILLER_0_10_165
*102 FILLER_0_10_177
*103 FILLER_0_10_189
*104 FILLER_0_10_195
*105 FILLER_0_10_197
*106 FILLER_0_10_209
*107 FILLER_0_10_221
*108 FILLER_0_10_233
*109 FILLER_0_10_245
*110 FILLER_0_10_251
*111 FILLER_0_10_253
*112 FILLER_0_10_265
*113 FILLER_0_10_27
*114 FILLER_0_10_277
*115 FILLER_0_10_289
*116 FILLER_0_10_29
*117 FILLER_0_10_3
*118 FILLER_0_10_301
*119 FILLER_0_10_307
*120 FILLER_0_10_309
*121 FILLER_0_10_321
*122 FILLER_0_10_333
*123 FILLER_0_10_345
*124 FILLER_0_10_357
*125 FILLER_0_10_363
*126 FILLER_0_10_365
*127 FILLER_0_10_377
*128 FILLER_0_10_389
*129 FILLER_0_10_401
*130 FILLER_0_10_41
*131 FILLER_0_10_413
*132 FILLER_0_10_419
*133 FILLER_0_10_421
*134 FILLER_0_10_433
*135 FILLER_0_10_445
*136 FILLER_0_10_457
*137 FILLER_0_10_469
*138 FILLER_0_10_475
*139 FILLER_0_10_477
*140 FILLER_0_10_489
*141 FILLER_0_10_501
*142 FILLER_0_10_513
*143 FILLER_0_10_525
*144 FILLER_0_10_53
*145 FILLER_0_10_65
*146 FILLER_0_10_77
*147 FILLER_0_10_83
*148 FILLER_0_10_85
*149 FILLER_0_10_97
*150 FILLER_0_11_105
*151 FILLER_0_11_111
*152 FILLER_0_11_113
*153 FILLER_0_11_125
*154 FILLER_0_11_137
*155 FILLER_0_11_149
*156 FILLER_0_11_15
*157 FILLER_0_11_161
*158 FILLER_0_11_167
*159 FILLER_0_11_169
*160 FILLER_0_11_181
*161 FILLER_0_11_193
*162 FILLER_0_11_205
*163 FILLER_0_11_217
*164 FILLER_0_11_223
*165 FILLER_0_11_225
*166 FILLER_0_11_237
*167 FILLER_0_11_249
*168 FILLER_0_11_261
*169 FILLER_0_11_27
*170 FILLER_0_11_273
*171 FILLER_0_11_279
*172 FILLER_0_11_281
*173 FILLER_0_11_293
*174 FILLER_0_11_3
*175 FILLER_0_11_305
*176 FILLER_0_11_317
*177 FILLER_0_11_329
*178 FILLER_0_11_335
*179 FILLER_0_11_337
*180 FILLER_0_11_349
*181 FILLER_0_11_361
*182 FILLER_0_11_373
*183 FILLER_0_11_385
*184 FILLER_0_11_39
*185 FILLER_0_11_391
*186 FILLER_0_11_393
*187 FILLER_0_11_405
*188 FILLER_0_11_417
*189 FILLER_0_11_429
*190 FILLER_0_11_441
*191 FILLER_0_11_447
*192 FILLER_0_11_449
*193 FILLER_0_11_461
*194 FILLER_0_11_473
*195 FILLER_0_11_485
*196 FILLER_0_11_497
*197 FILLER_0_11_503
*198 FILLER_0_11_505
*199 FILLER_0_11_51
*200 FILLER_0_11_517
*201 FILLER_0_11_55
*202 FILLER_0_11_57
*203 FILLER_0_11_69
*204 FILLER_0_11_81
*205 FILLER_0_11_93
*206 FILLER_0_12_109
*207 FILLER_0_12_121
*208 FILLER_0_12_133
*209 FILLER_0_12_139
*210 FILLER_0_12_141
*211 FILLER_0_12_15
*212 FILLER_0_12_153
*213 FILLER_0_12_165
*214 FILLER_0_12_177
*215 FILLER_0_12_189
*216 FILLER_0_12_195
*217 FILLER_0_12_197
*218 FILLER_0_12_209
*219 FILLER_0_12_221
*220 FILLER_0_12_233
*221 FILLER_0_12_245
*222 FILLER_0_12_251
*223 FILLER_0_12_253
*224 FILLER_0_12_265
*225 FILLER_0_12_27
*226 FILLER_0_12_277
*227 FILLER_0_12_289
*228 FILLER_0_12_29
*229 FILLER_0_12_3
*230 FILLER_0_12_301
*231 FILLER_0_12_307
*232 FILLER_0_12_309
*233 FILLER_0_12_321
*234 FILLER_0_12_333
*235 FILLER_0_12_345
*236 FILLER_0_12_357
*237 FILLER_0_12_363
*238 FILLER_0_12_365
*239 FILLER_0_12_377
*240 FILLER_0_12_389
*241 FILLER_0_12_401
*242 FILLER_0_12_41
*243 FILLER_0_12_413
*244 FILLER_0_12_419
*245 FILLER_0_12_421
*246 FILLER_0_12_433
*247 FILLER_0_12_445
*248 FILLER_0_12_457
*249 FILLER_0_12_469
*250 FILLER_0_12_475
*251 FILLER_0_12_477
*252 FILLER_0_12_489
*253 FILLER_0_12_501
*254 FILLER_0_12_513
*255 FILLER_0_12_525
*256 FILLER_0_12_53
*257 FILLER_0_12_65
*258 FILLER_0_12_77
*259 FILLER_0_12_83
*260 FILLER_0_12_85
*261 FILLER_0_12_97
*262 FILLER_0_13_105
*263 FILLER_0_13_111
*264 FILLER_0_13_113
*265 FILLER_0_13_125
*266 FILLER_0_13_137
*267 FILLER_0_13_149
*268 FILLER_0_13_15
*269 FILLER_0_13_161
*270 FILLER_0_13_167
*271 FILLER_0_13_169
*272 FILLER_0_13_181
*273 FILLER_0_13_193
*274 FILLER_0_13_205
*275 FILLER_0_13_217
*276 FILLER_0_13_223
*277 FILLER_0_13_225
*278 FILLER_0_13_237
*279 FILLER_0_13_249
*280 FILLER_0_13_261
*281 FILLER_0_13_27
*282 FILLER_0_13_273
*283 FILLER_0_13_279
*284 FILLER_0_13_281
*285 FILLER_0_13_293
*286 FILLER_0_13_3
*287 FILLER_0_13_305
*288 FILLER_0_13_317
*289 FILLER_0_13_329
*290 FILLER_0_13_335
*291 FILLER_0_13_337
*292 FILLER_0_13_349
*293 FILLER_0_13_361
*294 FILLER_0_13_373
*295 FILLER_0_13_385
*296 FILLER_0_13_39
*297 FILLER_0_13_391
*298 FILLER_0_13_393
*299 FILLER_0_13_405
*300 FILLER_0_13_417
*301 FILLER_0_13_429
*302 FILLER_0_13_441
*303 FILLER_0_13_447
*304 FILLER_0_13_449
*305 FILLER_0_13_461
*306 FILLER_0_13_473
*307 FILLER_0_13_485
*308 FILLER_0_13_497
*309 FILLER_0_13_503
*310 FILLER_0_13_505
*311 FILLER_0_13_51
*312 FILLER_0_13_517
*313 FILLER_0_13_55
*314 FILLER_0_13_57
*315 FILLER_0_13_69
*316 FILLER_0_13_81
*317 FILLER_0_13_93
*318 FILLER_0_14_109
*319 FILLER_0_14_121
*320 FILLER_0_14_133
*321 FILLER_0_14_139
*322 FILLER_0_14_141
*323 FILLER_0_14_15
*324 FILLER_0_14_153
*325 FILLER_0_14_165
*326 FILLER_0_14_177
*327 FILLER_0_14_189
*328 FILLER_0_14_195
*329 FILLER_0_14_197
*330 FILLER_0_14_209
*331 FILLER_0_14_221
*332 FILLER_0_14_233
*333 FILLER_0_14_245
*334 FILLER_0_14_251
*335 FILLER_0_14_253
*336 FILLER_0_14_265
*337 FILLER_0_14_27
*338 FILLER_0_14_277
*339 FILLER_0_14_289
*340 FILLER_0_14_29
*341 FILLER_0_14_3
*342 FILLER_0_14_301
*343 FILLER_0_14_307
*344 FILLER_0_14_309
*345 FILLER_0_14_321
*346 FILLER_0_14_333
*347 FILLER_0_14_345
*348 FILLER_0_14_357
*349 FILLER_0_14_363
*350 FILLER_0_14_365
*351 FILLER_0_14_377
*352 FILLER_0_14_389
*353 FILLER_0_14_401
*354 FILLER_0_14_41
*355 FILLER_0_14_413
*356 FILLER_0_14_419
*357 FILLER_0_14_421
*358 FILLER_0_14_433
*359 FILLER_0_14_445
*360 FILLER_0_14_457
*361 FILLER_0_14_469
*362 FILLER_0_14_475
*363 FILLER_0_14_477
*364 FILLER_0_14_489
*365 FILLER_0_14_501
*366 FILLER_0_14_513
*367 FILLER_0_14_525
*368 FILLER_0_14_53
*369 FILLER_0_14_65
*370 FILLER_0_14_77
*371 FILLER_0_14_83
*372 FILLER_0_14_85
*373 FILLER_0_14_97
*374 FILLER_0_15_105
*375 FILLER_0_15_111
*376 FILLER_0_15_113
*377 FILLER_0_15_125
*378 FILLER_0_15_137
*379 FILLER_0_15_149
*380 FILLER_0_15_15
*381 FILLER_0_15_161
*382 FILLER_0_15_167
*383 FILLER_0_15_169
*384 FILLER_0_15_181
*385 FILLER_0_15_193
*386 FILLER_0_15_205
*387 FILLER_0_15_217
*388 FILLER_0_15_223
*389 FILLER_0_15_225
*390 FILLER_0_15_237
*391 FILLER_0_15_249
*392 FILLER_0_15_261
*393 FILLER_0_15_27
*394 FILLER_0_15_273
*395 FILLER_0_15_279
*396 FILLER_0_15_281
*397 FILLER_0_15_293
*398 FILLER_0_15_3
*399 FILLER_0_15_305
*400 FILLER_0_15_317
*401 FILLER_0_15_329
*402 FILLER_0_15_335
*403 FILLER_0_15_337
*404 FILLER_0_15_349
*405 FILLER_0_15_361
*406 FILLER_0_15_373
*407 FILLER_0_15_385
*408 FILLER_0_15_39
*409 FILLER_0_15_391
*410 FILLER_0_15_393
*411 FILLER_0_15_405
*412 FILLER_0_15_417
*413 FILLER_0_15_429
*414 FILLER_0_15_441
*415 FILLER_0_15_447
*416 FILLER_0_15_449
*417 FILLER_0_15_461
*418 FILLER_0_15_473
*419 FILLER_0_15_485
*420 FILLER_0_15_497
*421 FILLER_0_15_503
*422 FILLER_0_15_505
*423 FILLER_0_15_51
*424 FILLER_0_15_517
*425 FILLER_0_15_55
*426 FILLER_0_15_57
*427 FILLER_0_15_69
*428 FILLER_0_15_81
*429 FILLER_0_15_93
*430 FILLER_0_16_109
*431 FILLER_0_16_121
*432 FILLER_0_16_133
*433 FILLER_0_16_139
*434 FILLER_0_16_141
*435 FILLER_0_16_15
*436 FILLER_0_16_153
*437 FILLER_0_16_165
*438 FILLER_0_16_177
*439 FILLER_0_16_189
*440 FILLER_0_16_195
*441 FILLER_0_16_197
*442 FILLER_0_16_209
*443 FILLER_0_16_221
*444 FILLER_0_16_233
*445 FILLER_0_16_245
*446 FILLER_0_16_251
*447 FILLER_0_16_253
*448 FILLER_0_16_265
*449 FILLER_0_16_27
*450 FILLER_0_16_277
*451 FILLER_0_16_289
*452 FILLER_0_16_29
*453 FILLER_0_16_3
*454 FILLER_0_16_301
*455 FILLER_0_16_307
*456 FILLER_0_16_309
*457 FILLER_0_16_321
*458 FILLER_0_16_333
*459 FILLER_0_16_345
*460 FILLER_0_16_357
*461 FILLER_0_16_363
*462 FILLER_0_16_365
*463 FILLER_0_16_377
*464 FILLER_0_16_389
*465 FILLER_0_16_401
*466 FILLER_0_16_41
*467 FILLER_0_16_413
*468 FILLER_0_16_419
*469 FILLER_0_16_421
*470 FILLER_0_16_433
*471 FILLER_0_16_445
*472 FILLER_0_16_457
*473 FILLER_0_16_469
*474 FILLER_0_16_475
*475 FILLER_0_16_477
*476 FILLER_0_16_489
*477 FILLER_0_16_501
*478 FILLER_0_16_513
*479 FILLER_0_16_525
*480 FILLER_0_16_53
*481 FILLER_0_16_65
*482 FILLER_0_16_77
*483 FILLER_0_16_83
*484 FILLER_0_16_85
*485 FILLER_0_16_97
*486 FILLER_0_17_105
*487 FILLER_0_17_111
*488 FILLER_0_17_113
*489 FILLER_0_17_125
*490 FILLER_0_17_137
*491 FILLER_0_17_149
*492 FILLER_0_17_15
*493 FILLER_0_17_161
*494 FILLER_0_17_167
*495 FILLER_0_17_169
*496 FILLER_0_17_181
*497 FILLER_0_17_193
*498 FILLER_0_17_205
*499 FILLER_0_17_217
*500 FILLER_0_17_223
*501 FILLER_0_17_225
*502 FILLER_0_17_237
*503 FILLER_0_17_249
*504 FILLER_0_17_261
*505 FILLER_0_17_27
*506 FILLER_0_17_273
*507 FILLER_0_17_279
*508 FILLER_0_17_281
*509 FILLER_0_17_293
*510 FILLER_0_17_3
*511 FILLER_0_17_305
*512 FILLER_0_17_317
*513 FILLER_0_17_329
*514 FILLER_0_17_335
*515 FILLER_0_17_337
*516 FILLER_0_17_349
*517 FILLER_0_17_361
*518 FILLER_0_17_373
*519 FILLER_0_17_385
*520 FILLER_0_17_39
*521 FILLER_0_17_391
*522 FILLER_0_17_393
*523 FILLER_0_17_405
*524 FILLER_0_17_417
*525 FILLER_0_17_429
*526 FILLER_0_17_441
*527 FILLER_0_17_447
*528 FILLER_0_17_449
*529 FILLER_0_17_461
*530 FILLER_0_17_473
*531 FILLER_0_17_485
*532 FILLER_0_17_497
*533 FILLER_0_17_503
*534 FILLER_0_17_505
*535 FILLER_0_17_51
*536 FILLER_0_17_517
*537 FILLER_0_17_525
*538 FILLER_0_17_55
*539 FILLER_0_17_57
*540 FILLER_0_17_69
*541 FILLER_0_17_81
*542 FILLER_0_17_93
*543 FILLER_0_18_109
*544 FILLER_0_18_121
*545 FILLER_0_18_133
*546 FILLER_0_18_139
*547 FILLER_0_18_141
*548 FILLER_0_18_15
*549 FILLER_0_18_153
*550 FILLER_0_18_165
*551 FILLER_0_18_177
*552 FILLER_0_18_189
*553 FILLER_0_18_195
*554 FILLER_0_18_197
*555 FILLER_0_18_209
*556 FILLER_0_18_221
*557 FILLER_0_18_233
*558 FILLER_0_18_245
*559 FILLER_0_18_251
*560 FILLER_0_18_253
*561 FILLER_0_18_265
*562 FILLER_0_18_27
*563 FILLER_0_18_277
*564 FILLER_0_18_289
*565 FILLER_0_18_29
*566 FILLER_0_18_3
*567 FILLER_0_18_301
*568 FILLER_0_18_307
*569 FILLER_0_18_309
*570 FILLER_0_18_321
*571 FILLER_0_18_333
*572 FILLER_0_18_345
*573 FILLER_0_18_357
*574 FILLER_0_18_363
*575 FILLER_0_18_365
*576 FILLER_0_18_377
*577 FILLER_0_18_389
*578 FILLER_0_18_401
*579 FILLER_0_18_41
*580 FILLER_0_18_413
*581 FILLER_0_18_419
*582 FILLER_0_18_421
*583 FILLER_0_18_433
*584 FILLER_0_18_445
*585 FILLER_0_18_457
*586 FILLER_0_18_469
*587 FILLER_0_18_475
*588 FILLER_0_18_477
*589 FILLER_0_18_489
*590 FILLER_0_18_501
*591 FILLER_0_18_513
*592 FILLER_0_18_525
*593 FILLER_0_18_53
*594 FILLER_0_18_65
*595 FILLER_0_18_77
*596 FILLER_0_18_83
*597 FILLER_0_18_85
*598 FILLER_0_18_97
*599 FILLER_0_19_105
*600 FILLER_0_19_111
*601 FILLER_0_19_113
*602 FILLER_0_19_125
*603 FILLER_0_19_137
*604 FILLER_0_19_149
*605 FILLER_0_19_15
*606 FILLER_0_19_161
*607 FILLER_0_19_167
*608 FILLER_0_19_169
*609 FILLER_0_19_181
*610 FILLER_0_19_193
*611 FILLER_0_19_205
*612 FILLER_0_19_217
*613 FILLER_0_19_223
*614 FILLER_0_19_225
*615 FILLER_0_19_237
*616 FILLER_0_19_249
*617 FILLER_0_19_261
*618 FILLER_0_19_27
*619 FILLER_0_19_273
*620 FILLER_0_19_279
*621 FILLER_0_19_281
*622 FILLER_0_19_293
*623 FILLER_0_19_3
*624 FILLER_0_19_305
*625 FILLER_0_19_317
*626 FILLER_0_19_329
*627 FILLER_0_19_335
*628 FILLER_0_19_337
*629 FILLER_0_19_349
*630 FILLER_0_19_361
*631 FILLER_0_19_373
*632 FILLER_0_19_385
*633 FILLER_0_19_39
*634 FILLER_0_19_391
*635 FILLER_0_19_393
*636 FILLER_0_19_405
*637 FILLER_0_19_417
*638 FILLER_0_19_429
*639 FILLER_0_19_441
*640 FILLER_0_19_447
*641 FILLER_0_19_449
*642 FILLER_0_19_461
*643 FILLER_0_19_473
*644 FILLER_0_19_485
*645 FILLER_0_19_497
*646 FILLER_0_19_503
*647 FILLER_0_19_505
*648 FILLER_0_19_51
*649 FILLER_0_19_517
*650 FILLER_0_19_55
*651 FILLER_0_19_57
*652 FILLER_0_19_69
*653 FILLER_0_19_81
*654 FILLER_0_19_93
*655 FILLER_0_1_105
*656 FILLER_0_1_111
*657 FILLER_0_1_113
*658 FILLER_0_1_125
*659 FILLER_0_1_137
*660 FILLER_0_1_149
*661 FILLER_0_1_15
*662 FILLER_0_1_161
*663 FILLER_0_1_167
*664 FILLER_0_1_169
*665 FILLER_0_1_181
*666 FILLER_0_1_193
*667 FILLER_0_1_205
*668 FILLER_0_1_217
*669 FILLER_0_1_223
*670 FILLER_0_1_225
*671 FILLER_0_1_237
*672 FILLER_0_1_249
*673 FILLER_0_1_261
*674 FILLER_0_1_27
*675 FILLER_0_1_273
*676 FILLER_0_1_279
*677 FILLER_0_1_281
*678 FILLER_0_1_293
*679 FILLER_0_1_3
*680 FILLER_0_1_305
*681 FILLER_0_1_317
*682 FILLER_0_1_329
*683 FILLER_0_1_335
*684 FILLER_0_1_337
*685 FILLER_0_1_349
*686 FILLER_0_1_361
*687 FILLER_0_1_373
*688 FILLER_0_1_385
*689 FILLER_0_1_39
*690 FILLER_0_1_391
*691 FILLER_0_1_393
*692 FILLER_0_1_405
*693 FILLER_0_1_417
*694 FILLER_0_1_429
*695 FILLER_0_1_441
*696 FILLER_0_1_447
*697 FILLER_0_1_449
*698 FILLER_0_1_461
*699 FILLER_0_1_473
*700 FILLER_0_1_485
*701 FILLER_0_1_497
*702 FILLER_0_1_503
*703 FILLER_0_1_505
*704 FILLER_0_1_51
*705 FILLER_0_1_517
*706 FILLER_0_1_55
*707 FILLER_0_1_57
*708 FILLER_0_1_69
*709 FILLER_0_1_81
*710 FILLER_0_1_93
*711 FILLER_0_20_109
*712 FILLER_0_20_121
*713 FILLER_0_20_133
*714 FILLER_0_20_139
*715 FILLER_0_20_141
*716 FILLER_0_20_15
*717 FILLER_0_20_153
*718 FILLER_0_20_165
*719 FILLER_0_20_177
*720 FILLER_0_20_189
*721 FILLER_0_20_195
*722 FILLER_0_20_197
*723 FILLER_0_20_209
*724 FILLER_0_20_221
*725 FILLER_0_20_233
*726 FILLER_0_20_245
*727 FILLER_0_20_251
*728 FILLER_0_20_253
*729 FILLER_0_20_265
*730 FILLER_0_20_27
*731 FILLER_0_20_277
*732 FILLER_0_20_289
*733 FILLER_0_20_29
*734 FILLER_0_20_3
*735 FILLER_0_20_301
*736 FILLER_0_20_307
*737 FILLER_0_20_309
*738 FILLER_0_20_321
*739 FILLER_0_20_333
*740 FILLER_0_20_345
*741 FILLER_0_20_357
*742 FILLER_0_20_363
*743 FILLER_0_20_365
*744 FILLER_0_20_377
*745 FILLER_0_20_389
*746 FILLER_0_20_401
*747 FILLER_0_20_41
*748 FILLER_0_20_413
*749 FILLER_0_20_419
*750 FILLER_0_20_421
*751 FILLER_0_20_433
*752 FILLER_0_20_445
*753 FILLER_0_20_457
*754 FILLER_0_20_469
*755 FILLER_0_20_475
*756 FILLER_0_20_477
*757 FILLER_0_20_489
*758 FILLER_0_20_501
*759 FILLER_0_20_513
*760 FILLER_0_20_525
*761 FILLER_0_20_53
*762 FILLER_0_20_65
*763 FILLER_0_20_77
*764 FILLER_0_20_83
*765 FILLER_0_20_85
*766 FILLER_0_20_97
*767 FILLER_0_21_105
*768 FILLER_0_21_111
*769 FILLER_0_21_113
*770 FILLER_0_21_125
*771 FILLER_0_21_137
*772 FILLER_0_21_149
*773 FILLER_0_21_15
*774 FILLER_0_21_161
*775 FILLER_0_21_167
*776 FILLER_0_21_169
*777 FILLER_0_21_181
*778 FILLER_0_21_193
*779 FILLER_0_21_205
*780 FILLER_0_21_217
*781 FILLER_0_21_223
*782 FILLER_0_21_225
*783 FILLER_0_21_237
*784 FILLER_0_21_249
*785 FILLER_0_21_261
*786 FILLER_0_21_27
*787 FILLER_0_21_273
*788 FILLER_0_21_279
*789 FILLER_0_21_281
*790 FILLER_0_21_293
*791 FILLER_0_21_3
*792 FILLER_0_21_305
*793 FILLER_0_21_317
*794 FILLER_0_21_329
*795 FILLER_0_21_335
*796 FILLER_0_21_337
*797 FILLER_0_21_349
*798 FILLER_0_21_361
*799 FILLER_0_21_373
*800 FILLER_0_21_385
*801 FILLER_0_21_39
*802 FILLER_0_21_391
*803 FILLER_0_21_393
*804 FILLER_0_21_405
*805 FILLER_0_21_417
*806 FILLER_0_21_429
*807 FILLER_0_21_441
*808 FILLER_0_21_447
*809 FILLER_0_21_449
*810 FILLER_0_21_461
*811 FILLER_0_21_473
*812 FILLER_0_21_485
*813 FILLER_0_21_497
*814 FILLER_0_21_503
*815 FILLER_0_21_505
*816 FILLER_0_21_51
*817 FILLER_0_21_517
*818 FILLER_0_21_55
*819 FILLER_0_21_57
*820 FILLER_0_21_69
*821 FILLER_0_21_81
*822 FILLER_0_21_93
*823 FILLER_0_22_109
*824 FILLER_0_22_121
*825 FILLER_0_22_133
*826 FILLER_0_22_139
*827 FILLER_0_22_141
*828 FILLER_0_22_15
*829 FILLER_0_22_153
*830 FILLER_0_22_165
*831 FILLER_0_22_177
*832 FILLER_0_22_189
*833 FILLER_0_22_195
*834 FILLER_0_22_197
*835 FILLER_0_22_209
*836 FILLER_0_22_221
*837 FILLER_0_22_233
*838 FILLER_0_22_245
*839 FILLER_0_22_251
*840 FILLER_0_22_253
*841 FILLER_0_22_265
*842 FILLER_0_22_27
*843 FILLER_0_22_277
*844 FILLER_0_22_289
*845 FILLER_0_22_29
*846 FILLER_0_22_3
*847 FILLER_0_22_301
*848 FILLER_0_22_307
*849 FILLER_0_22_309
*850 FILLER_0_22_321
*851 FILLER_0_22_333
*852 FILLER_0_22_345
*853 FILLER_0_22_357
*854 FILLER_0_22_363
*855 FILLER_0_22_365
*856 FILLER_0_22_377
*857 FILLER_0_22_389
*858 FILLER_0_22_401
*859 FILLER_0_22_41
*860 FILLER_0_22_413
*861 FILLER_0_22_419
*862 FILLER_0_22_421
*863 FILLER_0_22_433
*864 FILLER_0_22_445
*865 FILLER_0_22_457
*866 FILLER_0_22_469
*867 FILLER_0_22_475
*868 FILLER_0_22_477
*869 FILLER_0_22_489
*870 FILLER_0_22_501
*871 FILLER_0_22_513
*872 FILLER_0_22_525
*873 FILLER_0_22_53
*874 FILLER_0_22_65
*875 FILLER_0_22_77
*876 FILLER_0_22_83
*877 FILLER_0_22_85
*878 FILLER_0_22_97
*879 FILLER_0_23_105
*880 FILLER_0_23_111
*881 FILLER_0_23_113
*882 FILLER_0_23_125
*883 FILLER_0_23_137
*884 FILLER_0_23_149
*885 FILLER_0_23_15
*886 FILLER_0_23_161
*887 FILLER_0_23_167
*888 FILLER_0_23_169
*889 FILLER_0_23_181
*890 FILLER_0_23_193
*891 FILLER_0_23_205
*892 FILLER_0_23_217
*893 FILLER_0_23_223
*894 FILLER_0_23_225
*895 FILLER_0_23_237
*896 FILLER_0_23_249
*897 FILLER_0_23_261
*898 FILLER_0_23_27
*899 FILLER_0_23_273
*900 FILLER_0_23_279
*901 FILLER_0_23_281
*902 FILLER_0_23_293
*903 FILLER_0_23_3
*904 FILLER_0_23_305
*905 FILLER_0_23_317
*906 FILLER_0_23_329
*907 FILLER_0_23_335
*908 FILLER_0_23_337
*909 FILLER_0_23_349
*910 FILLER_0_23_361
*911 FILLER_0_23_373
*912 FILLER_0_23_385
*913 FILLER_0_23_39
*914 FILLER_0_23_391
*915 FILLER_0_23_393
*916 FILLER_0_23_405
*917 FILLER_0_23_417
*918 FILLER_0_23_429
*919 FILLER_0_23_441
*920 FILLER_0_23_447
*921 FILLER_0_23_449
*922 FILLER_0_23_461
*923 FILLER_0_23_473
*924 FILLER_0_23_485
*925 FILLER_0_23_497
*926 FILLER_0_23_503
*927 FILLER_0_23_505
*928 FILLER_0_23_51
*929 FILLER_0_23_517
*930 FILLER_0_23_55
*931 FILLER_0_23_57
*932 FILLER_0_23_69
*933 FILLER_0_23_81
*934 FILLER_0_23_93
*935 FILLER_0_24_109
*936 FILLER_0_24_121
*937 FILLER_0_24_133
*938 FILLER_0_24_139
*939 FILLER_0_24_141
*940 FILLER_0_24_15
*941 FILLER_0_24_153
*942 FILLER_0_24_165
*943 FILLER_0_24_177
*944 FILLER_0_24_189
*945 FILLER_0_24_195
*946 FILLER_0_24_197
*947 FILLER_0_24_209
*948 FILLER_0_24_221
*949 FILLER_0_24_233
*950 FILLER_0_24_245
*951 FILLER_0_24_251
*952 FILLER_0_24_253
*953 FILLER_0_24_265
*954 FILLER_0_24_27
*955 FILLER_0_24_277
*956 FILLER_0_24_289
*957 FILLER_0_24_29
*958 FILLER_0_24_3
*959 FILLER_0_24_301
*960 FILLER_0_24_307
*961 FILLER_0_24_309
*962 FILLER_0_24_321
*963 FILLER_0_24_333
*964 FILLER_0_24_345
*965 FILLER_0_24_357
*966 FILLER_0_24_363
*967 FILLER_0_24_365
*968 FILLER_0_24_377
*969 FILLER_0_24_389
*970 FILLER_0_24_401
*971 FILLER_0_24_41
*972 FILLER_0_24_413
*973 FILLER_0_24_419
*974 FILLER_0_24_421
*975 FILLER_0_24_433
*976 FILLER_0_24_445
*977 FILLER_0_24_457
*978 FILLER_0_24_469
*979 FILLER_0_24_475
*980 FILLER_0_24_477
*981 FILLER_0_24_489
*982 FILLER_0_24_501
*983 FILLER_0_24_513
*984 FILLER_0_24_525
*985 FILLER_0_24_53
*986 FILLER_0_24_65
*987 FILLER_0_24_77
*988 FILLER_0_24_83
*989 FILLER_0_24_85
*990 FILLER_0_24_97
*991 FILLER_0_25_105
*992 FILLER_0_25_111
*993 FILLER_0_25_113
*994 FILLER_0_25_125
*995 FILLER_0_25_137
*996 FILLER_0_25_149
*997 FILLER_0_25_15
*998 FILLER_0_25_161
*999 FILLER_0_25_167
*1000 FILLER_0_25_169
*1001 FILLER_0_25_181
*1002 FILLER_0_25_193
*1003 FILLER_0_25_205
*1004 FILLER_0_25_217
*1005 FILLER_0_25_223
*1006 FILLER_0_25_225
*1007 FILLER_0_25_237
*1008 FILLER_0_25_249
*1009 FILLER_0_25_261
*1010 FILLER_0_25_27
*1011 FILLER_0_25_273
*1012 FILLER_0_25_279
*1013 FILLER_0_25_281
*1014 FILLER_0_25_293
*1015 FILLER_0_25_3
*1016 FILLER_0_25_305
*1017 FILLER_0_25_317
*1018 FILLER_0_25_329
*1019 FILLER_0_25_335
*1020 FILLER_0_25_337
*1021 FILLER_0_25_349
*1022 FILLER_0_25_361
*1023 FILLER_0_25_373
*1024 FILLER_0_25_385
*1025 FILLER_0_25_39
*1026 FILLER_0_25_391
*1027 FILLER_0_25_393
*1028 FILLER_0_25_405
*1029 FILLER_0_25_417
*1030 FILLER_0_25_429
*1031 FILLER_0_25_441
*1032 FILLER_0_25_447
*1033 FILLER_0_25_449
*1034 FILLER_0_25_461
*1035 FILLER_0_25_473
*1036 FILLER_0_25_485
*1037 FILLER_0_25_497
*1038 FILLER_0_25_503
*1039 FILLER_0_25_505
*1040 FILLER_0_25_51
*1041 FILLER_0_25_517
*1042 FILLER_0_25_55
*1043 FILLER_0_25_57
*1044 FILLER_0_25_69
*1045 FILLER_0_25_81
*1046 FILLER_0_25_93
*1047 FILLER_0_26_109
*1048 FILLER_0_26_121
*1049 FILLER_0_26_133
*1050 FILLER_0_26_139
*1051 FILLER_0_26_141
*1052 FILLER_0_26_15
*1053 FILLER_0_26_153
*1054 FILLER_0_26_165
*1055 FILLER_0_26_177
*1056 FILLER_0_26_189
*1057 FILLER_0_26_195
*1058 FILLER_0_26_197
*1059 FILLER_0_26_209
*1060 FILLER_0_26_221
*1061 FILLER_0_26_233
*1062 FILLER_0_26_245
*1063 FILLER_0_26_251
*1064 FILLER_0_26_253
*1065 FILLER_0_26_265
*1066 FILLER_0_26_27
*1067 FILLER_0_26_277
*1068 FILLER_0_26_289
*1069 FILLER_0_26_29
*1070 FILLER_0_26_3
*1071 FILLER_0_26_301
*1072 FILLER_0_26_307
*1073 FILLER_0_26_309
*1074 FILLER_0_26_321
*1075 FILLER_0_26_333
*1076 FILLER_0_26_345
*1077 FILLER_0_26_357
*1078 FILLER_0_26_363
*1079 FILLER_0_26_365
*1080 FILLER_0_26_377
*1081 FILLER_0_26_389
*1082 FILLER_0_26_401
*1083 FILLER_0_26_41
*1084 FILLER_0_26_413
*1085 FILLER_0_26_419
*1086 FILLER_0_26_421
*1087 FILLER_0_26_433
*1088 FILLER_0_26_445
*1089 FILLER_0_26_457
*1090 FILLER_0_26_469
*1091 FILLER_0_26_475
*1092 FILLER_0_26_477
*1093 FILLER_0_26_489
*1094 FILLER_0_26_501
*1095 FILLER_0_26_513
*1096 FILLER_0_26_525
*1097 FILLER_0_26_53
*1098 FILLER_0_26_65
*1099 FILLER_0_26_77
*1100 FILLER_0_26_83
*1101 FILLER_0_26_85
*1102 FILLER_0_26_97
*1103 FILLER_0_27_105
*1104 FILLER_0_27_111
*1105 FILLER_0_27_113
*1106 FILLER_0_27_125
*1107 FILLER_0_27_137
*1108 FILLER_0_27_149
*1109 FILLER_0_27_15
*1110 FILLER_0_27_161
*1111 FILLER_0_27_167
*1112 FILLER_0_27_169
*1113 FILLER_0_27_181
*1114 FILLER_0_27_193
*1115 FILLER_0_27_205
*1116 FILLER_0_27_217
*1117 FILLER_0_27_223
*1118 FILLER_0_27_225
*1119 FILLER_0_27_237
*1120 FILLER_0_27_249
*1121 FILLER_0_27_261
*1122 FILLER_0_27_27
*1123 FILLER_0_27_273
*1124 FILLER_0_27_279
*1125 FILLER_0_27_281
*1126 FILLER_0_27_293
*1127 FILLER_0_27_3
*1128 FILLER_0_27_305
*1129 FILLER_0_27_317
*1130 FILLER_0_27_329
*1131 FILLER_0_27_335
*1132 FILLER_0_27_337
*1133 FILLER_0_27_349
*1134 FILLER_0_27_361
*1135 FILLER_0_27_373
*1136 FILLER_0_27_385
*1137 FILLER_0_27_39
*1138 FILLER_0_27_391
*1139 FILLER_0_27_393
*1140 FILLER_0_27_405
*1141 FILLER_0_27_417
*1142 FILLER_0_27_429
*1143 FILLER_0_27_441
*1144 FILLER_0_27_447
*1145 FILLER_0_27_449
*1146 FILLER_0_27_461
*1147 FILLER_0_27_473
*1148 FILLER_0_27_485
*1149 FILLER_0_27_497
*1150 FILLER_0_27_503
*1151 FILLER_0_27_505
*1152 FILLER_0_27_51
*1153 FILLER_0_27_517
*1154 FILLER_0_27_525
*1155 FILLER_0_27_55
*1156 FILLER_0_27_57
*1157 FILLER_0_27_69
*1158 FILLER_0_27_81
*1159 FILLER_0_27_93
*1160 FILLER_0_28_109
*1161 FILLER_0_28_121
*1162 FILLER_0_28_133
*1163 FILLER_0_28_139
*1164 FILLER_0_28_141
*1165 FILLER_0_28_15
*1166 FILLER_0_28_153
*1167 FILLER_0_28_165
*1168 FILLER_0_28_177
*1169 FILLER_0_28_189
*1170 FILLER_0_28_195
*1171 FILLER_0_28_197
*1172 FILLER_0_28_209
*1173 FILLER_0_28_221
*1174 FILLER_0_28_233
*1175 FILLER_0_28_245
*1176 FILLER_0_28_251
*1177 FILLER_0_28_253
*1178 FILLER_0_28_265
*1179 FILLER_0_28_27
*1180 FILLER_0_28_277
*1181 FILLER_0_28_289
*1182 FILLER_0_28_29
*1183 FILLER_0_28_3
*1184 FILLER_0_28_301
*1185 FILLER_0_28_307
*1186 FILLER_0_28_309
*1187 FILLER_0_28_321
*1188 FILLER_0_28_333
*1189 FILLER_0_28_345
*1190 FILLER_0_28_357
*1191 FILLER_0_28_363
*1192 FILLER_0_28_365
*1193 FILLER_0_28_377
*1194 FILLER_0_28_389
*1195 FILLER_0_28_401
*1196 FILLER_0_28_41
*1197 FILLER_0_28_413
*1198 FILLER_0_28_419
*1199 FILLER_0_28_421
*1200 FILLER_0_28_433
*1201 FILLER_0_28_445
*1202 FILLER_0_28_457
*1203 FILLER_0_28_469
*1204 FILLER_0_28_475
*1205 FILLER_0_28_477
*1206 FILLER_0_28_489
*1207 FILLER_0_28_501
*1208 FILLER_0_28_513
*1209 FILLER_0_28_525
*1210 FILLER_0_28_53
*1211 FILLER_0_28_65
*1212 FILLER_0_28_77
*1213 FILLER_0_28_83
*1214 FILLER_0_28_85
*1215 FILLER_0_28_97
*1216 FILLER_0_29_105
*1217 FILLER_0_29_111
*1218 FILLER_0_29_113
*1219 FILLER_0_29_125
*1220 FILLER_0_29_137
*1221 FILLER_0_29_149
*1222 FILLER_0_29_15
*1223 FILLER_0_29_161
*1224 FILLER_0_29_167
*1225 FILLER_0_29_169
*1226 FILLER_0_29_181
*1227 FILLER_0_29_193
*1228 FILLER_0_29_205
*1229 FILLER_0_29_217
*1230 FILLER_0_29_223
*1231 FILLER_0_29_225
*1232 FILLER_0_29_237
*1233 FILLER_0_29_249
*1234 FILLER_0_29_261
*1235 FILLER_0_29_27
*1236 FILLER_0_29_273
*1237 FILLER_0_29_279
*1238 FILLER_0_29_281
*1239 FILLER_0_29_293
*1240 FILLER_0_29_3
*1241 FILLER_0_29_305
*1242 FILLER_0_29_317
*1243 FILLER_0_29_329
*1244 FILLER_0_29_335
*1245 FILLER_0_29_337
*1246 FILLER_0_29_349
*1247 FILLER_0_29_361
*1248 FILLER_0_29_373
*1249 FILLER_0_29_385
*1250 FILLER_0_29_39
*1251 FILLER_0_29_391
*1252 FILLER_0_29_393
*1253 FILLER_0_29_405
*1254 FILLER_0_29_417
*1255 FILLER_0_29_429
*1256 FILLER_0_29_441
*1257 FILLER_0_29_447
*1258 FILLER_0_29_449
*1259 FILLER_0_29_461
*1260 FILLER_0_29_473
*1261 FILLER_0_29_485
*1262 FILLER_0_29_497
*1263 FILLER_0_29_503
*1264 FILLER_0_29_505
*1265 FILLER_0_29_51
*1266 FILLER_0_29_517
*1267 FILLER_0_29_55
*1268 FILLER_0_29_57
*1269 FILLER_0_29_69
*1270 FILLER_0_29_81
*1271 FILLER_0_29_93
*1272 FILLER_0_2_109
*1273 FILLER_0_2_121
*1274 FILLER_0_2_133
*1275 FILLER_0_2_139
*1276 FILLER_0_2_141
*1277 FILLER_0_2_15
*1278 FILLER_0_2_153
*1279 FILLER_0_2_165
*1280 FILLER_0_2_177
*1281 FILLER_0_2_189
*1282 FILLER_0_2_195
*1283 FILLER_0_2_197
*1284 FILLER_0_2_209
*1285 FILLER_0_2_221
*1286 FILLER_0_2_233
*1287 FILLER_0_2_245
*1288 FILLER_0_2_251
*1289 FILLER_0_2_253
*1290 FILLER_0_2_265
*1291 FILLER_0_2_27
*1292 FILLER_0_2_277
*1293 FILLER_0_2_289
*1294 FILLER_0_2_29
*1295 FILLER_0_2_3
*1296 FILLER_0_2_301
*1297 FILLER_0_2_307
*1298 FILLER_0_2_309
*1299 FILLER_0_2_321
*1300 FILLER_0_2_333
*1301 FILLER_0_2_345
*1302 FILLER_0_2_357
*1303 FILLER_0_2_363
*1304 FILLER_0_2_365
*1305 FILLER_0_2_377
*1306 FILLER_0_2_389
*1307 FILLER_0_2_401
*1308 FILLER_0_2_41
*1309 FILLER_0_2_413
*1310 FILLER_0_2_419
*1311 FILLER_0_2_421
*1312 FILLER_0_2_433
*1313 FILLER_0_2_445
*1314 FILLER_0_2_457
*1315 FILLER_0_2_469
*1316 FILLER_0_2_475
*1317 FILLER_0_2_477
*1318 FILLER_0_2_489
*1319 FILLER_0_2_501
*1320 FILLER_0_2_513
*1321 FILLER_0_2_525
*1322 FILLER_0_2_53
*1323 FILLER_0_2_65
*1324 FILLER_0_2_77
*1325 FILLER_0_2_83
*1326 FILLER_0_2_85
*1327 FILLER_0_2_97
*1328 FILLER_0_30_109
*1329 FILLER_0_30_121
*1330 FILLER_0_30_133
*1331 FILLER_0_30_139
*1332 FILLER_0_30_141
*1333 FILLER_0_30_15
*1334 FILLER_0_30_153
*1335 FILLER_0_30_165
*1336 FILLER_0_30_177
*1337 FILLER_0_30_189
*1338 FILLER_0_30_195
*1339 FILLER_0_30_197
*1340 FILLER_0_30_209
*1341 FILLER_0_30_221
*1342 FILLER_0_30_233
*1343 FILLER_0_30_245
*1344 FILLER_0_30_251
*1345 FILLER_0_30_253
*1346 FILLER_0_30_265
*1347 FILLER_0_30_27
*1348 FILLER_0_30_277
*1349 FILLER_0_30_289
*1350 FILLER_0_30_29
*1351 FILLER_0_30_3
*1352 FILLER_0_30_301
*1353 FILLER_0_30_307
*1354 FILLER_0_30_309
*1355 FILLER_0_30_321
*1356 FILLER_0_30_333
*1357 FILLER_0_30_345
*1358 FILLER_0_30_357
*1359 FILLER_0_30_363
*1360 FILLER_0_30_365
*1361 FILLER_0_30_377
*1362 FILLER_0_30_389
*1363 FILLER_0_30_401
*1364 FILLER_0_30_41
*1365 FILLER_0_30_413
*1366 FILLER_0_30_419
*1367 FILLER_0_30_421
*1368 FILLER_0_30_433
*1369 FILLER_0_30_445
*1370 FILLER_0_30_457
*1371 FILLER_0_30_469
*1372 FILLER_0_30_475
*1373 FILLER_0_30_477
*1374 FILLER_0_30_489
*1375 FILLER_0_30_501
*1376 FILLER_0_30_513
*1377 FILLER_0_30_525
*1378 FILLER_0_30_53
*1379 FILLER_0_30_65
*1380 FILLER_0_30_77
*1381 FILLER_0_30_83
*1382 FILLER_0_30_85
*1383 FILLER_0_30_97
*1384 FILLER_0_31_105
*1385 FILLER_0_31_111
*1386 FILLER_0_31_113
*1387 FILLER_0_31_125
*1388 FILLER_0_31_137
*1389 FILLER_0_31_149
*1390 FILLER_0_31_15
*1391 FILLER_0_31_161
*1392 FILLER_0_31_167
*1393 FILLER_0_31_169
*1394 FILLER_0_31_181
*1395 FILLER_0_31_193
*1396 FILLER_0_31_205
*1397 FILLER_0_31_217
*1398 FILLER_0_31_223
*1399 FILLER_0_31_225
*1400 FILLER_0_31_237
*1401 FILLER_0_31_249
*1402 FILLER_0_31_261
*1403 FILLER_0_31_27
*1404 FILLER_0_31_273
*1405 FILLER_0_31_279
*1406 FILLER_0_31_281
*1407 FILLER_0_31_293
*1408 FILLER_0_31_3
*1409 FILLER_0_31_305
*1410 FILLER_0_31_317
*1411 FILLER_0_31_329
*1412 FILLER_0_31_335
*1413 FILLER_0_31_337
*1414 FILLER_0_31_349
*1415 FILLER_0_31_361
*1416 FILLER_0_31_373
*1417 FILLER_0_31_385
*1418 FILLER_0_31_39
*1419 FILLER_0_31_391
*1420 FILLER_0_31_393
*1421 FILLER_0_31_405
*1422 FILLER_0_31_417
*1423 FILLER_0_31_429
*1424 FILLER_0_31_441
*1425 FILLER_0_31_447
*1426 FILLER_0_31_449
*1427 FILLER_0_31_461
*1428 FILLER_0_31_473
*1429 FILLER_0_31_485
*1430 FILLER_0_31_497
*1431 FILLER_0_31_503
*1432 FILLER_0_31_505
*1433 FILLER_0_31_51
*1434 FILLER_0_31_517
*1435 FILLER_0_31_55
*1436 FILLER_0_31_57
*1437 FILLER_0_31_69