*SPEF "ieee 1481-1999"
*DESIGN "ZeroToFiveCounter"
*DATE "20:09:03 Tuesday May 20, 2025"
*VENDOR "The OpenROAD Project"
*PROGRAM "OpenROAD"
*VERSION "b16bda7e82721d10566ff7e2b68f1ff0be9f9e38"
*DESIGN_FLOW "NAME_SCOPE LOCAL" "PIN_CAP NONE"
*DIVIDER /
*DELIMITER :
*BUS_DELIMITER []
*T_UNIT 1 NS
*C_UNIT 1 PF
*R_UNIT 1 OHM
*L_UNIT 1 HENRY

*NAME_MAP
*1 net6
*2 net10
*3 net11
*4 net7
*5 net8
*6 net9
*7 net12
*8 net13
*11 clk
*12 count[0]
*13 count[1]
*14 count[2]
*15 count[3]
*16 rst
*17 _000_
*18 _001_
*19 _002_
*20 _003_
*21 _004_
*22 _005_
*23 _006_
*24 _007_
*25 _008_
*26 _009_
*27 _010_
*28 _011_
*29 _012_
*30 _013_
*31 _014_
*32 _015_
*33 _016_
*34 _017_
*35 _018_
*36 _019_
*37 _020_
*38 _021_
*39 _022_
*40 _023_
*41 _024_
*42 _025_
*43 _026_
*44 _027_
*45 _028_
*46 _029_
*47 _030_
*48 _031_
*49 _032_
*50 _033_
*51 _034_
*52 _035_
*53 _036_
*54 _037_
*55 _038_
*56 _039_
*57 _040_
*58 _041_
*59 _042_
*60 _043_
*61 _044_
*62 _045_
*63 _046_
*64 _047_
*65 _048_
*66 _049_
*67 _050_
*68 _051_
*69 _052_
*70 _053_
*71 _054_
*72 _055_
*73 _056_
*74 _057_
*75 _058_
*76 _059_
*77 _060_
*78 _061_
*79 _062_
*80 _063_
*81 _064_
*82 _065_
*83 _066_
*84 _067_
*85 _068_
*86 _069_
*87 _070_
*88 _071_
*89 _072_
*90 _073_
*91 _074_
*92 _075_
*93 _076_
*94 _077_
*95 _078_
*96 _079_
*97 _080_
*98 _081_
*99 _082_
*100 _083_
*101 _084_
*102 _085_
*103 _086_
*104 _087_
*105 _088_
*106 _089_
*107 _090_
*108 _091_
*109 _092_
*110 _093_
*111 _094_
*112 _095_
*113 _096_
*114 _097_
*115 _098_
*116 _099_
*117 _100_
*118 _101_
*119 _102_
*120 _103_
*121 _104_
*122 _105_
*123 _106_
*124 _107_
*125 _108_
*126 _109_
*127 _110_
*128 _111_
*129 _112_
*130 _113_
*131 _114_
*132 _115_
*133 _116_
*134 _117_
*135 _118_
*136 _119_
*137 _120_
*138 _121_
*139 _122_
*140 _123_
*141 _124_
*142 _125_
*143 _126_
*144 _127_
*145 _128_
*146 _129_
*147 _130_
*148 _131_
*149 _132_
*150 _133_
*151 _134_
*152 _135_
*153 _136_
*154 _137_
*155 _138_
*156 _139_
*157 _140_
*158 _141_
*159 _142_
*160 _143_
*161 _144_
*162 _145_
*163 _146_
*164 _147_
*165 _148_
*166 _149_
*167 _150_
*168 _151_
*169 _152_
*170 _153_
*171 _154_
*172 _155_
*173 _156_
*174 _157_
*175 _158_
*176 _159_
*177 _160_
*178 _161_
*179 _162_
*180 _163_
*181 _164_
*182 _165_
*183 _166_
*184 _167_
*185 _168_
*186 _169_
*187 _170_
*188 _171_
*189 _172_
*190 _173_
*191 _174_
*192 clknet_0_clk
*193 clknet_2_0__leaf_clk
*194 clknet_2_1__leaf_clk
*195 clknet_2_2__leaf_clk
*196 clknet_2_3__leaf_clk
*197 net1
*198 net14
*199 net15
*200 net16
*201 net17
*202 net18
*203 net2
*204 net3
*205 net4
*206 net5
*207 one_second_counter\[0\]
*208 one_second_counter\[10\]
*209 one_second_counter\[11\]
*210 one_second_counter\[12\]
*211 one_second_counter\[13\]
*212 one_second_counter\[14\]
*213 one_second_counter\[15\]
*214 one_second_counter\[16\]
*215 one_second_counter\[17\]
*216 one_second_counter\[18\]
*217 one_second_counter\[19\]
*218 one_second_counter\[1\]
*219 one_second_counter\[20\]
*220 one_second_counter\[21\]
*221 one_second_counter\[22\]
*222 one_second_counter\[23\]
*223 one_second_counter\[24\]
*224 one_second_counter\[25\]
*225 one_second_counter\[26\]
*226 one_second_counter\[2\]
*227 one_second_counter\[3\]
*228 one_second_counter\[4\]
*229 one_second_counter\[5\]
*230 one_second_counter\[6\]
*231 one_second_counter\[7\]
*232 one_second_counter\[8\]
*233 one_second_counter\[9\]
*234 FILLER_0_0_105
*235 FILLER_0_0_111
*236 FILLER_0_0_113
*237 FILLER_0_0_125
*238 FILLER_0_0_133
*239 FILLER_0_0_15
*240 FILLER_0_0_27
*241 FILLER_0_0_29
*242 FILLER_0_0_3
*243 FILLER_0_0_35
*244 FILLER_0_0_47
*245 FILLER_0_0_55
*246 FILLER_0_0_57
*247 FILLER_0_0_65
*248 FILLER_0_0_69
*249 FILLER_0_0_81
*250 FILLER_0_0_85
*251 FILLER_0_0_91
*252 FILLER_0_0_98
*253 FILLER_0_10_116
*254 FILLER_0_10_128
*255 FILLER_0_10_15
*256 FILLER_0_10_20
*257 FILLER_0_10_29
*258 FILLER_0_10_3
*259 FILLER_0_10_50
*260 FILLER_0_10_62
*261 FILLER_0_10_85
*262 FILLER_0_11_101
*263 FILLER_0_11_105
*264 FILLER_0_11_111
*265 FILLER_0_11_113
*266 FILLER_0_11_125
*267 FILLER_0_11_133
*268 FILLER_0_11_3
*269 FILLER_0_11_31
*270 FILLER_0_11_43
*271 FILLER_0_11_55
*272 FILLER_0_11_57
*273 FILLER_0_11_68
*274 FILLER_0_11_85
*275 FILLER_0_11_97
*276 FILLER_0_12_109
*277 FILLER_0_12_11
*278 FILLER_0_12_122
*279 FILLER_0_12_133
*280 FILLER_0_12_15
*281 FILLER_0_12_21
*282 FILLER_0_12_27
*283 FILLER_0_12_29
*284 FILLER_0_12_3
*285 FILLER_0_12_35
*286 FILLER_0_12_43
*287 FILLER_0_12_52
*288 FILLER_0_12_58
*289 FILLER_0_12_85
*290 FILLER_0_12_97
*291 FILLER_0_13_106
*292 FILLER_0_13_133
*293 FILLER_0_13_15
*294 FILLER_0_13_24
*295 FILLER_0_13_3
*296 FILLER_0_13_32
*297 FILLER_0_13_46
*298 FILLER_0_13_54
*299 FILLER_0_13_57
*300 FILLER_0_13_69
*301 FILLER_0_13_73
*302 FILLER_0_13_94
*303 FILLER_0_14_106
*304 FILLER_0_14_11
*305 FILLER_0_14_127
*306 FILLER_0_14_133
*307 FILLER_0_14_3
*308 FILLER_0_14_32
*309 FILLER_0_14_72
*310 FILLER_0_14_94
*311 FILLER_0_15_133
*312 FILLER_0_15_27
*313 FILLER_0_15_3
*314 FILLER_0_15_39
*315 FILLER_0_15_53
*316 FILLER_0_15_96
*317 FILLER_0_16_127
*318 FILLER_0_16_133
*319 FILLER_0_16_27
*320 FILLER_0_16_29
*321 FILLER_0_16_3
*322 FILLER_0_16_37
*323 FILLER_0_16_64
*324 FILLER_0_16_76
*325 FILLER_0_16_96
*326 FILLER_0_17_105
*327 FILLER_0_17_109
*328 FILLER_0_17_121
*329 FILLER_0_17_133
*330 FILLER_0_17_29
*331 FILLER_0_17_3
*332 FILLER_0_17_65
*333 FILLER_0_17_77
*334 FILLER_0_18_129
*335 FILLER_0_18_133
*336 FILLER_0_18_15
*337 FILLER_0_18_27
*338 FILLER_0_18_29
*339 FILLER_0_18_3
*340 FILLER_0_18_33
*341 FILLER_0_18_37
*342 FILLER_0_18_59
*343 FILLER_0_18_71
*344 FILLER_0_18_83
*345 FILLER_0_18_85
*346 FILLER_0_19_103
*347 FILLER_0_19_111
*348 FILLER_0_19_113
*349 FILLER_0_19_117
*350 FILLER_0_19_121
*351 FILLER_0_19_133
*352 FILLER_0_19_15
*353 FILLER_0_19_3
*354 FILLER_0_19_68
*355 FILLER_0_19_96
*356 FILLER_0_1_100
*357 FILLER_0_1_113
*358 FILLER_0_1_125
*359 FILLER_0_1_18
*360 FILLER_0_1_52
*361 FILLER_0_1_6
*362 FILLER_0_1_62
*363 FILLER_0_1_66
*364 FILLER_0_1_74
*365 FILLER_0_20_109
*366 FILLER_0_20_121
*367 FILLER_0_20_129
*368 FILLER_0_20_18
*369 FILLER_0_20_39
*370 FILLER_0_20_6
*371 FILLER_0_20_97
*372 FILLER_0_21_107
*373 FILLER_0_21_111
*374 FILLER_0_21_113
*375 FILLER_0_21_125
*376 FILLER_0_21_18
*377 FILLER_0_21_30
*378 FILLER_0_21_42
*379 FILLER_0_21_48
*380 FILLER_0_21_6
*381 FILLER_0_21_60
*382 FILLER_0_21_72
*383 FILLER_0_21_95
*384 FILLER_0_22_109
*385 FILLER_0_22_113
*386 FILLER_0_22_125
*387 FILLER_0_22_133
*388 FILLER_0_22_15
*389 FILLER_0_22_27
*390 FILLER_0_22_29
*391 FILLER_0_22_3
*392 FILLER_0_22_41
*393 FILLER_0_22_53
*394 FILLER_0_22_57
*395 FILLER_0_22_69
*396 FILLER_0_22_81
*397 FILLER_0_22_85
*398 FILLER_0_22_97
*399 FILLER_0_2_125
*400 FILLER_0_2_18
*401 FILLER_0_2_6
*402 FILLER_0_2_72
*403 FILLER_0_3_110
*404 FILLER_0_3_120
*405 FILLER_0_3_132
*406 FILLER_0_3_15
*407 FILLER_0_3_27
*408 FILLER_0_3_3
*409 FILLER_0_3_50
*410 FILLER_0_3_54
*411 FILLER_0_3_65
*412 FILLER_0_3_73
*413 FILLER_0_4_120
*414 FILLER_0_4_126
*415 FILLER_0_4_15
*416 FILLER_0_4_27
*417 FILLER_0_4_29
*418 FILLER_0_4_3
*419 FILLER_0_4_36
*420 FILLER_0_4_43
*421 FILLER_0_4_70
*422 FILLER_0_4_78
*423 FILLER_0_4_95
*424 FILLER_0_5_105
*425 FILLER_0_5_111
*426 FILLER_0_5_113
*427 FILLER_0_5_125
*428 FILLER_0_5_133
*429 FILLER_0_5_14
*430 FILLER_0_5_18
*431 FILLER_0_5_25
*432 FILLER_0_5_3
*433 FILLER_0_5_37
*434 FILLER_0_5_46
*435 FILLER_0_5_54
*436 FILLER_0_5_57
*437 FILLER_0_5_69
*438 FILLER_0_5_81
*439 FILLER_0_5_93
*440 FILLER_0_6_107
*441 FILLER_0_6_112
*442 FILLER_0_6_124
*443 FILLER_0_6_132
*444 FILLER_0_6_24
*445 FILLER_0_6_3
*446 FILLER_0_6_34
*447 FILLER_0_6_60
*448 FILLER_0_6_72
*449 FILLER_0_6_85
*450 FILLER_0_7_100
*451 FILLER_0_7_27
*452 FILLER_0_7_3
*453 FILLER_0_7_44
*454 FILLER_0_7_57
*455 FILLER_0_7_62
*456 FILLER_0_7_79
*457 FILLER_0_8_111
*458 FILLER_0_8_3
*459 FILLER_0_8_55
*460 FILLER_0_8_7
*461 FILLER_0_8_85
*462 FILLER_0_9_111
*463 FILLER_0_9_133
*464 FILLER_0_9_15
*465 FILLER_0_9_23
*466 FILLER_0_9_3
*467 FILLER_0_9_60
*468 FILLER_0_9_65
*469 FILLER_0_9_73
*470 FILLER_0_9_89
*471 PHY_EDGE_ROW_0_Left_23
*472 PHY_EDGE_ROW_0_Right_0
*473 PHY_EDGE_ROW_10_Left_33
*474 PHY_EDGE_ROW_10_Right_10
*475 PHY_EDGE_ROW_11_Left_34
*476 PHY_EDGE_ROW_11_Right_11
*477 PHY_EDGE_ROW_12_Left_35
*478 PHY_EDGE_ROW_12_Right_12
*479 PHY_EDGE_ROW_13_Left_36
*480 PHY_EDGE_ROW_13_Right_13
*481 PHY_EDGE_ROW_14_Left_37
*482 PHY_EDGE_ROW_14_Right_14
*483 PHY_EDGE_ROW_15_Left_38
*484 PHY_EDGE_ROW_15_Right_15
*485 PHY_EDGE_ROW_16_Left_39
*486 PHY_EDGE_ROW_16_Right_16
*487 PHY_EDGE_ROW_17_Left_40
*488 PHY_EDGE_ROW_17_Right_17
*489 PHY_EDGE_ROW_18_Left_41
*490 PHY_EDGE_ROW_18_Right_18
*491 PHY_EDGE_ROW_19_Left_42
*492 PHY_EDGE_ROW_19_Right_19
*493 PHY_EDGE_ROW_1_Left_24
*494 PHY_EDGE_ROW_1_Right_1
*495 PHY_EDGE_ROW_20_Left_43
*496 PHY_EDGE_ROW_20_Right_20
*497 PHY_EDGE_ROW_21_Left_44
*498 PHY_EDGE_ROW_21_Right_21
*499 PHY_EDGE_ROW_22_Left_45
*500 PHY_EDGE_ROW_22_Right_22
*501 PHY_EDGE_ROW_2_Left_25
*502 PHY_EDGE_ROW_2_Right_2
*503 PHY_EDGE_ROW_3_Left_26
*504 PHY_EDGE_ROW_3_Right_3
*505 PHY_EDGE_ROW_4_Left_27
*506 PHY_EDGE_ROW_4_Right_4
*507 PHY_EDGE_ROW_5_Left_28
*508 PHY_EDGE_ROW_5_Right_5
*509 PHY_EDGE_ROW_6_Left_29
*510 PHY_EDGE_ROW_6_Right_6
*511 PHY_EDGE_ROW_7_Left_30
*512 PHY_EDGE_ROW_7_Right_7
*513 PHY_EDGE_ROW_8_Left_31
*514 PHY_EDGE_ROW_8_Right_8
*515 PHY_EDGE_ROW_9_Left_32
*516 PHY_EDGE_ROW_9_Right_9
*517 TAP_TAPCELL_ROW_0_46
*518 TAP_TAPCELL_ROW_0_47
*519 TAP_TAPCELL_ROW_0_48
*520 TAP_TAPCELL_ROW_0_49
*521 TAP_TAPCELL_ROW_10_68
*522 TAP_TAPCELL_ROW_10_69
*523 TAP_TAPCELL_ROW_11_70
*524 TAP_TAPCELL_ROW_11_71
*525 TAP_TAPCELL_ROW_12_72
*526 TAP_TAPCELL_ROW_12_73
*527 TAP_TAPCELL_ROW_13_74
*528 TAP_TAPCELL_ROW_13_75
*529 TAP_TAPCELL_ROW_14_76
*530 TAP_TAPCELL_ROW_14_77
*531 TAP_TAPCELL_ROW_15_78
*532 TAP_TAPCELL_ROW_15_79
*533 TAP_TAPCELL_ROW_16_80
*534 TAP_TAPCELL_ROW_16_81
*535 TAP_TAPCELL_ROW_17_82
*536 TAP_TAPCELL_ROW_17_83
*537 TAP_TAPCELL_ROW_18_84
*538 TAP_TAPCELL_ROW_18_85
*539 TAP_TAPCELL_ROW_19_86
*540 TAP_TAPCELL_ROW_19_87
*541 TAP_TAPCELL_ROW_1_50
*542 TAP_TAPCELL_ROW_1_51
*543 TAP_TAPCELL_ROW_20_88
*544 TAP_TAPCELL_ROW_20_89
*545 TAP_TAPCELL_ROW_21_90
*546 TAP_TAPCELL_ROW_21_91
*547 TAP_TAPCELL_ROW_22_92
*548 TAP_TAPCELL_ROW_22_93
*549 TAP_TAPCELL_ROW_22_94
*550 TAP_TAPCELL_ROW_22_95
*551 TAP_TAPCELL_ROW_2_52
*552 TAP_TAPCELL_ROW_2_53
*553 TAP_TAPCELL_ROW_3_54
*554 TAP_TAPCELL_ROW_3_55
*555 TAP_TAPCELL_ROW_4_56
*556 TAP_TAPCELL_ROW_4_57
*557 TAP_TAPCELL_ROW_5_58
*558 TAP_TAPCELL_ROW_5_59
*559 TAP_TAPCELL_ROW_6_60
*560 TAP_TAPCELL_ROW_6_61
*561 TAP_TAPCELL_ROW_7_62
*562 TAP_TAPCELL_ROW_7_63
*563 TAP_TAPCELL_ROW_8_64
*564 TAP_TAPCELL_ROW_8_65
*565 TAP_TAPCELL_ROW_9_66
*566 TAP_TAPCELL_ROW_9_67
*567 ZeroToFiveCounter_10
*568 ZeroToFiveCounter_11
*569 ZeroToFiveCounter_12
*570 ZeroToFiveCounter_13
*571 ZeroToFiveCounter_6
*572 ZeroToFiveCounter_7
*573 ZeroToFiveCounter_8
*574 ZeroToFiveCounter_9
*575 _175_
*576 _176_
*577 _177_
*578 _178_
*579 _179_
*580 _180_
*581 _181_
*582 _182_
*583 _183_
*584 _184_
*585 _185_
*586 _186_
*587 _187_
*588 _188_
*589 _189_
*590 _190_
*591 _191_
*592 _192_
*593 _193_
*594 _194_
*595 _195_
*596 _196_
*597 _197_
*598 _198_
*599 _199_
*600 _200_
*601 _201_
*602 _202_
*603 _203_
*604 _204_
*605 _205_
*606 _206_
*607 _207_
*608 _208_
*609 _209_
*610 _210_
*611 _211_
*612 _212_
*613 _213_
*614 _214_
*615 _215_
*616 _216_
*617 _217_
*618 _218_
*619 _219_
*620 _220_
*621 _221_
*622 _222_
*623 _223_
*624 _224_
*625 _225_
*626 _226_
*627 _227_
*628 _228_
*629 _229_
*630 _230_
*631 _231_
*632 _232_
*633 _233_
*634 _234_
*635 _235_
*636 _236_
*637 _237_
*638 _238_
*639 _239_
*640 _240_
*641 _241_
*642 _242_
*643 _243_
*644 _244_
*645 _245_
*646 _246_
*647 _247_
*648 _248_
*649 _249_
*650 _250_
*651 _251_
*652 _252_
*653 _253_
*654 _254_
*655 _255_
*656 _256_
*657 _257_
*658 _258_
*659 _259_
*660 _260_
*661 _261_
*662 _262_
*663 _263_
*664 _264_
*665 _265_
*666 _266_
*667 _267_
*668 _268_
*669 _269_
*670 _270_
*671 _271_
*672 _272_
*673 _273_
*674 _274_
*675 _275_
*676 _276_
*677 _277_
*678 _278_
*679 _279_
*680 _280_
*681 _281_
*682 _282_
*683 _283_
*684 _284_
*685 _285_
*686 _286_
*687 _287_
*688 _288_
*689 _289_
*690 _290_
*691 _291_
*692 _292_
*693 _293_
*694 _294_
*695 _295_
*696 _296_
*697 _297_
*698 _298_
*699 _299_
*700 _300_
*701 _301_
*702 _302_
*703 _303_
*704 _304_
*705 _305_
*706 _306_
*707 _307_
*708 _308_
*709 _309_
*710 _310_
*711 _311_
*712 _312_
*713 _313_
*714 _314_
*715 _315_
*716 _316_
*717 _317_
*718 _318_
*719 _319_
*720 _320_
*721 _321_
*722 _322_
*723 _323_
*724 _324_
*725 _325_
*726 _326_
*727 _327_
*728 _328_
*729 _329_
*730 _330_
*731 _331_
*732 _332_
*733 _333_
*734 _334_
*735 _335_
*736 _336_
*737 _337_
*738 _338_
*739 _339_
*740 _340_
*741 _341_
*742 _342_
*743 _343_
*744 _344_
*745 _345_
*746 _346_
*747 _347_
*748 _348_
*749 _349_
*750 _350_
*751 _351_
*752 _352_
*753 _353_
*754 _354_
*755 _355_
*756 _356_
*757 _357_
*758 _358_
*759 _359_
*760 _360_
*761 _361_
*762 _362_
*763 _363_
*764 _364_
*765 _365_
*766 _366_
*767 _367_
*768 _368_
*769 _369_
*770 _370_
*771 _371_
*772 _372_
*773 _373_
*774 _374_
*775 _375_
*776 _376_
*777 _377_
*778 _378_
*779 _379_
*780 _380_
*781 clkbuf_0_clk
*782 clkbuf_2_0__f_clk
*783 clkbuf_2_1__f_clk
*784 clkbuf_2_2__f_clk
*785 clkbuf_2_3__f_clk
*786 clkload0
*787 clkload1
*788 clkload2
*789 hold1
*790 hold2
*791 hold3
*792 hold4
*793 hold5
*794 input1
*795 output2
*796 output3
*797 output4
*798 output5

*PORTS
AN[0] O
AN[1] O
AN[2] O
AN[3] O
AN[4] O
AN[5] O
AN[6] O
AN[7] O
clk I
count[0] O
count[1] O
count[2] O
count[3] O
rst I

*D_NET *1 0.000537984
*CONN
*P AN[0] O
*I *571:LO O *D sky130_fd_sc_hd__conb_1
*CAP
1 AN[0] 0.000255492
2 *571:LO 0.000255492
3 AN[0] AN[5] 2.69997e-05
*RES
1 *571:LO AN[0] 6.8343 
*END

*D_NET *2 0.000584217
*CONN
*P AN[1] O
*I *567:HI O *D sky130_fd_sc_hd__conb_1
*CAP
1 AN[1] 0.000265159
2 *567:HI 0.000265159
3 AN[1] AN[4] 3.14094e-05
4 AN[1] *781:A 2.24901e-05
*RES
1 *567:HI AN[1] 6.8343 
*END

*D_NET *3 0.000527463
*CONN
*P AN[2] O
*I *568:HI O *D sky130_fd_sc_hd__conb_1
*CAP
1 AN[2] 0.000221827
2 *568:HI 0.000221827
3 AN[2] AN[6] 8.38091e-05
*RES
1 *568:HI AN[2] 5.41503 
*END

*D_NET *4 0.000462097
*CONN
*P AN[3] O
*I *572:LO O *D sky130_fd_sc_hd__conb_1
*CAP
1 AN[3] 0.000145743
2 *572:LO 0.000145743
3 AN[3] AN[7] 8.68024e-05
4 AN[3] count[3] 8.38091e-05
*RES
1 *572:LO AN[3] 4.90503 
*END

*D_NET *5 0.000478842
*CONN
*P AN[4] O
*I *573:LO O *D sky130_fd_sc_hd__conb_1
*CAP
1 AN[4] 0.000223716
2 *573:LO 0.000223716
3 AN[4] *781:A 0
4 AN[1] AN[4] 3.14094e-05
*RES
1 *573:LO AN[4] 5.35677 
*END

*D_NET *6 0.000544714
*CONN
*P AN[5] O
*I *574:LO O *D sky130_fd_sc_hd__conb_1
*CAP
1 AN[5] 0.000258857
2 *574:LO 0.000258857
3 AN[0] AN[5] 2.69997e-05
*RES
1 *574:LO AN[5] 6.8343 
*END

*D_NET *7 0.000528681
*CONN
*P AN[6] O
*I *569:HI O *D sky130_fd_sc_hd__conb_1
*CAP
1 AN[6] 0.000222436
2 *569:HI 0.000222436
3 AN[2] AN[6] 8.38091e-05
*RES
1 *569:HI AN[6] 5.41503 
*END

*D_NET *8 0.000522831
*CONN
*P AN[7] O
*I *570:HI O *D sky130_fd_sc_hd__conb_1
*CAP
1 AN[7] 0.000218014
2 *570:HI 0.000218014
3 AN[3] AN[7] 8.68024e-05
*RES
1 *570:HI AN[7] 5.41503 
*END

*D_NET *11 0.00672636
*CONN
*P clk I
*I *781:A I *D sky130_fd_sc_hd__clkbuf_16
*CAP
1 clk 0.00329424
2 *781:A 0.00329424
3 *781:A *79:16 0.00011539
4 AN[1] *781:A 2.24901e-05
5 AN[4] *781:A 0
*RES
1 clk *781:A 13.2034 
*END

*D_NET *12 0.000817337
*CONN
*P count[0] O
*I *795:X O *D sky130_fd_sc_hd__buf_2
*CAP
1 count[0] 0.000408669
2 *795:X 0.000408669
3 count[0] count[1] 0
*RES
1 *795:X count[0] 10.185 
*END

*D_NET *13 0.000751855
*CONN
*P count[1] O
*I *796:X O *D sky130_fd_sc_hd__buf_2
*CAP
1 count[1] 0.000375927
2 *796:X 0.000375927
3 count[1] count[2] 0
4 count[0] count[1] 0
*RES
1 *796:X count[1] 10.29 
*END

*D_NET *14 0.000812204
*CONN
*P count[2] O
*I *797:X O *D sky130_fd_sc_hd__buf_2
*CAP
1 count[2] 0.000406102
2 *797:X 0.000406102
3 count[1] count[2] 0
*RES
1 *797:X count[2] 10.185 
*END

*D_NET *15 0.000692382
*CONN
*P count[3] O
*I *798:X O *D sky130_fd_sc_hd__buf_2
*CAP
1 count[3] 0.000251854
2 *798:X 0.000251854
3 count[3] *798:A 0.000104865
4 AN[3] count[3] 8.38091e-05
*RES
1 *798:X count[3] 5.9833 
*END

*D_NET *16 0.000786235
*CONN
*P rst I
*I *794:A I *D sky130_fd_sc_hd__buf_1
*CAP
1 rst 0.000393118
2 *794:A 0.000393118
*RES
1 rst *794:A 10.35 
*END

*D_NET *17 0.000326092
*CONN
*I *754:D I *D sky130_fd_sc_hd__dfrtp_1
*I *610:X O *D sky130_fd_sc_hd__clkbuf_1
*CAP
1 *754:D 7.94407e-05
2 *610:X 7.94407e-05
3 *754:D *610:A 2.92612e-05
4 *754:D *102:44 8.90199e-05
5 *754:D *207:36 4.89295e-05
*RES
1 *610:X *754:D 8.775 
*END

*D_NET *18 0.000317198
*CONN
*I *764:D I *D sky130_fd_sc_hd__dfrtp_1
*I *652:X O *D sky130_fd_sc_hd__clkbuf_1
*CAP
1 *764:D 0.00014964
2 *652:X 0.00014964
3 *764:D *764:CLK 1.79174e-05
*RES
1 *652:X *764:D 5.045 
*END

*D_NET *19 0.000253354
*CONN
*I *765:D I *D sky130_fd_sc_hd__dfrtp_1
*I *657:X O *D sky130_fd_sc_hd__o211a_1
*CAP
1 *765:D 8.11201e-05
2 *657:X 8.11201e-05
3 *765:D *657:A1 1.80638e-05
4 *765:D *765:CLK 7.30505e-05
*RES
1 *657:X *765:D 4.685 
*END

*D_NET *20 0.000273539
*CONN
*I *766:D I *D sky130_fd_sc_hd__dfrtp_1
*I *662:X O *D sky130_fd_sc_hd__clkbuf_1
*CAP
1 *766:D 8.58093e-05
2 *662:X 8.58093e-05
3 *766:D *669:C1 4.43682e-05
4 *766:D *143:10 3.00381e-05
5 *766:D *195:21 2.75145e-05
*RES
1 *662:X *766:D 5.045 
*END

*D_NET *21 0.000367606
*CONN
*I *767:D I *D sky130_fd_sc_hd__dfrtp_1
*I *666:X O *D sky130_fd_sc_hd__clkbuf_1
*CAP
1 *767:D 0.000183803
2 *666:X 0.000183803
*RES
1 *666:X *767:D 9.465 
*END

*D_NET *22 0.000306342
*CONN
*I *768:D I *D sky130_fd_sc_hd__dfrtp_1
*I *669:X O *D sky130_fd_sc_hd__o211a_1
*CAP
1 *768:D 9.44863e-05
2 *669:X 9.44863e-05
3 *768:D *665:A 6.74079e-05
4 *768:D *669:A1 0
5 *768:D *142:40 4.99619e-05
*RES
1 *669:X *768:D 9.03 
*END

*D_NET *23 0.000864226
*CONN
*I *769:D I *D sky130_fd_sc_hd__dfrtp_1
*I *675:X O *D sky130_fd_sc_hd__clkbuf_1
*CAP
1 *769:D 0.000265268
2 *675:X 0.000265268
3 *769:D *667:B 4.6075e-05
4 *769:D *670:B1 7.14241e-05
5 *769:D *674:B 6.29387e-05
6 *769:D *211:32 0.000153251
*RES
1 *675:X *769:D 12.48 
*END

*D_NET *24 0.000435667
*CONN
*I *770:D I *D sky130_fd_sc_hd__dfrtp_2
*I *679:X O *D sky130_fd_sc_hd__clkbuf_1
*CAP
1 *770:D 0.000113383
2 *679:X 0.000113383
3 *770:D *676:B 4.66108e-05
4 *770:D *680:B 4.99619e-05
5 *770:D *152:46 2.89129e-05
6 *770:D *152:65 6.90254e-05
7 *770:D *214:60 0
8 *770:D *215:31 1.4389e-05
*RES
1 *679:X *770:D 9.465 
*END

*D_NET *25 0.000334387
*CONN
*I *771:D I *D sky130_fd_sc_hd__dfrtp_1
*I *683:X O *D sky130_fd_sc_hd__clkbuf_1
*CAP
1 *771:D 0.000108702
2 *683:X 0.000108702
3 *771:D *771:RESET_B 0.000114326
4 *771:D *214:60 2.65814e-06
*RES
1 *683:X *771:D 9.03 
*END

*D_NET *26 0.000381896
*CONN
*I *772:D I *D sky130_fd_sc_hd__dfrtp_1
*I *688:X O *D sky130_fd_sc_hd__clkbuf_1
*CAP
1 *772:D 0.000107904
2 *688:X 0.000107904
3 *772:D *688:A 4.77769e-05
4 *772:D *772:CLK 5.18362e-05
5 *772:D *192:40 6.64748e-05
*RES
1 *688:X *772:D 9.225 
*END

*D_NET *27 0.000849039
*CONN
*I *773:D I *D sky130_fd_sc_hd__dfrtp_1
*I *693:X O *D sky130_fd_sc_hd__o211a_1
*CAP
1 *773:D 0.000365519
2 *693:X 0.000365519
3 *773:D *167:16 4.71509e-05
4 *773:D *196:12 7.08493e-05
*RES
1 *693:X *773:D 12.645 
*END

*D_NET *28 0.000291364
*CONN
*I *755:D I *D sky130_fd_sc_hd__dfrtp_1
*I *614:X O *D sky130_fd_sc_hd__clkbuf_1
*CAP
1 *755:D 0.000128973
2 *614:X 0.000128973
3 *755:D *614:A 1.14169e-05
4 *755:D *755:CLK 2.20014e-05
*RES
1 *614:X *755:D 5.045 
*END

*D_NET *29 0.000655807
*CONN
*I *774:D I *D sky130_fd_sc_hd__dfrtp_2
*I *697:X O *D sky130_fd_sc_hd__clkbuf_1
*CAP
1 *774:D 0.000326406
2 *697:X 0.000326406
3 *774:D *696:B 2.99518e-06
*RES
1 *697:X *774:D 10.9838 
*END

*D_NET *30 0.000792437
*CONN
*I *775:D I *D sky130_fd_sc_hd__dfrtp_1
*I *700:X O *D sky130_fd_sc_hd__o211a_1
*CAP
1 *775:D 0.000276596
2 *700:X 0.000276596
3 *775:D *700:A1 7.33706e-05
4 *775:D *700:A2 4.29198e-05
5 *775:D *700:C1 2.75145e-05
6 *775:D *196:67 9.54399e-05
*RES
1 *700:X *775:D 11.19 
*END

*D_NET *31 0.000315003
*CONN
*I *776:D I *D sky130_fd_sc_hd__dfrtp_1
*I *703:X O *D sky130_fd_sc_hd__o211a_1
*CAP
1 *776:D 8.33027e-05
2 *703:X 8.33027e-05
3 *776:D *745:A 0.000106502
4 *776:D *165:48 4.18954e-05
*RES
1 *703:X *776:D 5.03 
*END

*D_NET *32 0.000690759
*CONN
*I *777:D I *D sky130_fd_sc_hd__dfrtp_1
*I *707:X O *D sky130_fd_sc_hd__o211a_1
*CAP
1 *777:D 0.000230029
2 *707:X 0.000230029
3 *777:D *702:A4 2.39856e-05
4 *777:D *103:120 0
5 *777:D *167:26 8.8196e-05
6 *777:D *186:82 0.00011852
*RES
1 *707:X *777:D 11.445 
*END

*D_NET *33 0.000419793
*CONN
*I *778:D I *D sky130_fd_sc_hd__dfrtp_1
*I *709:X O *D sky130_fd_sc_hd__o311a_1
*CAP
1 *778:D 0.000108378
2 *709:X 0.000108378
3 *778:D *607:A2 6.61693e-05
4 *778:D *712:A 1.01155e-05
5 *778:D *96:8 4.76093e-05
6 *778:D *96:12 5.04446e-05
7 *778:D *186:24 2.86975e-05
*RES
1 *709:X *778:D 9.225 
*END

*D_NET *34 0.000510961
*CONN
*I *779:D I *D sky130_fd_sc_hd__dfrtp_2
*I *714:X O *D sky130_fd_sc_hd__clkbuf_1
*CAP
1 *779:D 0.00025548
2 *714:X 0.00025548
*RES
1 *714:X *779:D 10.41 
*END

*D_NET *35 0.00238515
*CONN
*I *780:D I *D sky130_fd_sc_hd__dfrtp_1
*I *715:Y O *D sky130_fd_sc_hd__a21boi_1
*CAP
1 *780:D 0.000742468
2 *715:Y 0.000742468
3 *780:D *583:A 0.00022707
4 *780:D *595:D_N 3.64998e-06
5 *780:D *607:B1 0.000221692
6 *780:D *780:CLK 0.000322711
7 *780:D *81:6 7.11235e-06
8 *780:D *103:94 2.12738e-05
9 *780:D *225:24 9.67011e-05
*RES
1 *715:Y *780:D 17.8838 
*END

*D_NET *36 0.000682604
*CONN
*I *756:D I *D sky130_fd_sc_hd__dfrtp_1
*I *618:X O *D sky130_fd_sc_hd__clkbuf_1
*CAP
1 *756:D 0.000300404
2 *618:X 0.000300404
3 *756:D *618:A 9.09642e-06
4 *756:D *723:A 0
5 *756:D *756:CLK 7.27003e-05
*RES
1 *618:X *756:D 11.46 
*END

*D_NET *37 0.000836254
*CONN
*I *757:D I *D sky130_fd_sc_hd__dfrtp_1
*I *621:X O *D sky130_fd_sc_hd__clkbuf_1
*CAP
1 *757:D 0.000199739
2 *621:X 0.000199739
3 *757:D *187:21 0.000156791
4 *757:D *193:24 0.000279985
*RES
1 *621:X *757:D 11.58 
*END

*D_NET *38 0.000281592
*CONN
*I *758:D I *D sky130_fd_sc_hd__dfrtp_1
*I *627:X O *D sky130_fd_sc_hd__clkbuf_1
*CAP
1 *758:D 8.81575e-05
2 *627:X 8.81575e-05
3 *758:D *629:B 5.05521e-05
4 *758:D *193:97 5.47248e-05
*RES
1 *627:X *758:D 5.045 
*END

*D_NET *39 0.000427306
*CONN
*I *759:D I *D sky130_fd_sc_hd__dfrtp_1
*I *631:X O *D sky130_fd_sc_hd__clkbuf_1
*CAP
1 *759:D 0.000210737
2 *631:X 0.000210737
3 *759:D *631:A 5.83121e-06
*RES
1 *631:X *759:D 9.81 
*END

*D_NET *40 0.000352294
*CONN
*I *760:D I *D sky130_fd_sc_hd__dfrtp_1
*I *634:X O *D sky130_fd_sc_hd__o211a_1
*CAP
1 *760:D 8.51068e-05
2 *634:X 8.51068e-05
3 *760:D *634:A1 3.72007e-05
4 *760:D *634:C1 4.77769e-05
5 *760:D *187:36 9.05592e-05
6 *760:D *193:97 6.54361e-06
*RES
1 *634:X *760:D 8.775 
*END

*D_NET *41 0.000377672
*CONN
*I *761:D I *D sky130_fd_sc_hd__dfrtp_1
*I *637:X O *D sky130_fd_sc_hd__clkbuf_1
*CAP
1 *761:D 0.000170491
2 *637:X 0.000170491
3 *761:D *189:32 3.66913e-05
*RES
1 *637:X *761:D 9.465 
*END

*D_NET *42 0.000364878
*CONN
*I *762:D I *D sky130_fd_sc_hd__dfrtp_1
*I *642:X O *D sky130_fd_sc_hd__clkbuf_1
*CAP
1 *762:D 0.000162963
2 *642:X 0.000162963
3 *762:D *730:A 0
4 *762:D *762:CLK 3.89528e-05
*RES
1 *642:X *762:D 9.465 
*END

*D_NET *43 0.000332014
*CONN
*I *763:D I *D sky130_fd_sc_hd__dfrtp_1
*I *647:X O *D sky130_fd_sc_hd__clkbuf_1
*CAP
1 *763:D 0.000139354
2 *647:X 0.000139354
3 *763:D *195:49 4.18603e-06
4 *763:D *195:51 4.91189e-05
*RES
1 *647:X *763:D 9.375 
*END

*D_NET *44 0.000741316
*CONN
*I *750:RESET_B I *D sky130_fd_sc_hd__dfrtp_1
*I *717:Y O *D sky130_fd_sc_hd__inv_2
*CAP
1 *750:RESET_B 0.000179317
2 *717:Y 0.000179317
3 *750:RESET_B *598:A 0.000135195
4 *750:RESET_B *92:8 0.000173302
5 *750:RESET_B *184:16 0
6 *750:RESET_B *203:14 7.41855e-05
*RES
1 *717:Y *750:RESET_B 9.725 
*END

*D_NET *45 0.00109773
*CONN
*I *751:RESET_B I *D sky130_fd_sc_hd__dfrtp_1
*I *718:Y O *D sky130_fd_sc_hd__inv_2
*CAP
1 *751:RESET_B 0.000405697
2 *718:Y 0.000405697
3 *751:RESET_B *596:A 8.23457e-05
4 *751:RESET_B *751:CLK 0.000170845
5 *751:RESET_B *751:D 3.31413e-05
*RES
1 *718:Y *751:RESET_B 7.8625 
*END

*D_NET *46 0.00128992
*CONN
*I *752:RESET_B I *D sky130_fd_sc_hd__dfrtp_1
*I *719:Y O *D sky130_fd_sc_hd__inv_2
*CAP
1 *752:RESET_B 0.000276057
2 *719:Y 0.000276057
3 *752:RESET_B *719:A 0.000264507
4 *752:RESET_B *753:RESET_B 4.77757e-05
5 *752:RESET_B *798:A 0.000127364
6 *752:RESET_B *184:102 0.000179903
7 *752:RESET_B *205:8 0.00011826
*RES
1 *719:Y *752:RESET_B 12.2225 
*END

*D_NET *47 0.000763578
*CONN
*I *753:RESET_B I *D sky130_fd_sc_hd__dfrtp_1
*I *720:Y O *D sky130_fd_sc_hd__inv_2
*CAP
1 *753:RESET_B 0.000311722
2 *720:Y 0.000311722
3 *753:RESET_B *206:10 9.23578e-05
4 *752:RESET_B *753:RESET_B 4.77757e-05
*RES
1 *720:Y *753:RESET_B 10.7225 
*END

*D_NET *48 0.000273065
*CONN
*I *754:RESET_B I *D sky130_fd_sc_hd__dfrtp_1
*I *721:Y O *D sky130_fd_sc_hd__inv_2
*CAP
1 *754:RESET_B 0.000101285
2 *721:Y 0.000101285
3 *754:RESET_B *184:49 2.1742e-05
4 *754:RESET_B *207:10 4.87531e-05
*RES
1 *721:Y *754:RESET_B 3.3775 
*END

*D_NET *49 0.000290997
*CONN
*I *755:RESET_B I *D sky130_fd_sc_hd__dfrtp_1
*I *722:Y O *D sky130_fd_sc_hd__inv_2
*CAP
1 *755:RESET_B 8.22505e-05
2 *722:Y 8.22505e-05
3 *755:RESET_B *722:A 3.00381e-05
4 *755:RESET_B *197:8 0
5 *755:RESET_B *207:16 9.64579e-05
*RES
1 *722:Y *755:RESET_B 7.175 
*END

*D_NET *50 0.000230285
*CONN
*I *756:RESET_B I *D sky130_fd_sc_hd__dfrtp_1
*I *723:Y O *D sky130_fd_sc_hd__inv_2
*CAP
1 *756:RESET_B 0.000115143
2 *723:Y 0.000115143
3 *756:RESET_B *226:12 0
*RES
1 *723:Y *756:RESET_B 7.49 
*END

*D_NET *51 0.000751026
*CONN
*I *757:RESET_B I *D sky130_fd_sc_hd__dfrtp_1
*I *724:Y O *D sky130_fd_sc_hd__inv_2
*CAP
1 *757:RESET_B 0.00029784
2 *724:Y 0.00029784
3 *757:RESET_B *618:A 5.08871e-05
4 *757:RESET_B *724:A 2.49909e-05
5 *757:RESET_B *756:CLK 3.09179e-05
6 *757:RESET_B *193:24 4.85494e-05
*RES
1 *724:Y *757:RESET_B 5.9125 
*END

*D_NET *52 0.000730348
*CONN
*I *758:RESET_B I *D sky130_fd_sc_hd__dfrtp_1
*I *725:Y O *D sky130_fd_sc_hd__inv_2
*CAP
1 *758:RESET_B 0.000206099
2 *725:Y 0.000206099
3 *758:RESET_B *624:A 0
4 *758:RESET_B *626:B 0.000205078
5 *758:RESET_B *631:A 0
6 *758:RESET_B *634:A2 0
7 *758:RESET_B *759:RESET_B 0.000113072
*RES
1 *725:Y *758:RESET_B 9.98 
*END

*D_NET *53 0.000515081
*CONN
*I *759:RESET_B I *D sky130_fd_sc_hd__dfrtp_1
*I *726:Y O *D sky130_fd_sc_hd__inv_2
*CAP
1 *759:RESET_B 0.000157525
2 *726:Y 0.000157525
3 *759:RESET_B *631:A 0
4 *759:RESET_B *725:A 8.69583e-05
5 *758:RESET_B *759:RESET_B 0.000113072
*RES
1 *726:Y *759:RESET_B 8.72 
*END

*D_NET *54 0.000303347
*CONN
*I *760:RESET_B I *D sky130_fd_sc_hd__dfrtp_1
*I *728:Y O *D sky130_fd_sc_hd__inv_2
*CAP
1 *760:RESET_B 9.31294e-05
2 *728:Y 9.31294e-05
3 *760:RESET_B *230:10 0.000117089
*RES
1 *728:Y *760:RESET_B 3.3775 
*END

*D_NET *55 0.000721089
*CONN
*I *761:RESET_B I *D sky130_fd_sc_hd__dfrtp_1
*I *729:Y O *D sky130_fd_sc_hd__inv_2
*CAP
1 *761:RESET_B 0.000360544
2 *729:Y 0.000360544
*RES
1 *729:Y *761:RESET_B 5.9125 
*END

*D_NET *56 0.000553876
*CONN
*I *762:RESET_B I *D sky130_fd_sc_hd__dfrtp_1
*I *730:Y O *D sky130_fd_sc_hd__inv_2
*CAP
1 *762:RESET_B 0.000115752
2 *730:Y 0.000115752
3 *762:RESET_B *730:A 0.000158515
4 *762:RESET_B *113:48 0.000163857
*RES
1 *730:Y *762:RESET_B 8.285 
*END

*D_NET *57 0.000329914
*CONN
*I *763:RESET_B I *D sky130_fd_sc_hd__dfrtp_1
*I *731:Y O *D sky130_fd_sc_hd__inv_2
*CAP
1 *763:RESET_B 5.48577e-05
2 *731:Y 5.48577e-05
3 *763:RESET_B *195:47 0.000193272
4 *763:RESET_B *233:10 2.69272e-05
*RES
1 *731:Y *763:RESET_B 3.3775 
*END

*D_NET *58 0.000878573
*CONN
*I *764:RESET_B I *D sky130_fd_sc_hd__dfrtp_1
*I *732:Y O *D sky130_fd_sc_hd__inv_2
*CAP
1 *764:RESET_B 0.000241821
2 *732:Y 0.000241821
3 *764:RESET_B *646:C 0.00015897
4 *764:RESET_B *651:C 5.12899e-05
5 *764:RESET_B *730:A 1.91597e-05
6 *764:RESET_B *113:38 9.10613e-05
7 *764:RESET_B *185:67 4.77807e-05
8 *764:RESET_B *233:22 2.66696e-05
*RES
1 *732:Y *764:RESET_B 10.58 
*END

*D_NET *59 0.000985893
*CONN
*I *765:RESET_B I *D sky130_fd_sc_hd__dfrtp_1
*I *733:Y O *D sky130_fd_sc_hd__inv_2
*CAP
1 *765:RESET_B 0.000130842
2 *733:Y 0.000130842
3 *765:RESET_B *657:A1 4.65984e-05
4 *765:RESET_B *733:A 0.000158556
5 *765:RESET_B *793:A 0.000401588
6 *765:RESET_B *209:8 0.000117466
*RES
1 *733:Y *765:RESET_B 6.1375 
*END

*D_NET *60 0.000521269
*CONN
*I *766:RESET_B I *D sky130_fd_sc_hd__dfrtp_1
*I *734:Y O *D sky130_fd_sc_hd__inv_2
*CAP
1 *766:RESET_B 0.0001239
2 *734:Y 0.0001239
3 *766:RESET_B *79:14 0.000139245
4 *766:RESET_B *185:45 7.63204e-05
5 *766:RESET_B *210:6 5.55859e-05
6 *766:RESET_B *210:12 2.3184e-06
*RES
1 *734:Y *766:RESET_B 8.6675 
*END

*D_NET *61 0.000171648
*CONN
*I *767:RESET_B I *D sky130_fd_sc_hd__dfrtp_1
*I *735:Y O *D sky130_fd_sc_hd__inv_2
*CAP
1 *767:RESET_B 6.32346e-05
2 *735:Y 6.32346e-05
3 *767:RESET_B *735:A 4.51784e-05
*RES
1 *735:Y *767:RESET_B 6.725 
*END

*D_NET *62 0.00115915
*CONN
*I *768:RESET_B I *D sky130_fd_sc_hd__dfrtp_1
*I *736:Y O *D sky130_fd_sc_hd__inv_2
*CAP
1 *768:RESET_B 0.000369459
2 *736:Y 0.000369459
3 *768:RESET_B *580:A 0.000150386
4 *768:RESET_B *580:B 8.62445e-06
5 *768:RESET_B *580:C 0.000107972
6 *768:RESET_B *673:A 1.47256e-05
7 *768:RESET_B *736:A 2.49909e-05
8 *768:RESET_B *212:6 3.57349e-05
9 *768:RESET_B *212:12 7.77983e-05
*RES
1 *736:Y *768:RESET_B 6.9475 
*END

*D_NET *63 0.00028814
*CONN
*I *769:RESET_B I *D sky130_fd_sc_hd__dfrtp_1
*I *737:Y O *D sky130_fd_sc_hd__inv_2
*CAP
1 *769:RESET_B 0.000128089
2 *737:Y 0.000128089
3 *769:RESET_B *670:B1 3.19615e-05
*RES
1 *737:Y *769:RESET_B 3.3775 
*END

*D_NET *64 0.000365121
*CONN
*I *770:RESET_B I *D sky130_fd_sc_hd__dfrtp_2
*I *739:Y O *D sky130_fd_sc_hd__inv_2
*CAP
1 *770:RESET_B 0.000164143
2 *739:Y 0.000164143
3 *770:RESET_B *214:8 3.68344e-05
*RES
1 *739:Y *770:RESET_B 8.1575 
*END

*D_NET *65 0.000630657
*CONN
*I *771:RESET_B I *D sky130_fd_sc_hd__dfrtp_1
*I *740:Y O *D sky130_fd_sc_hd__inv_2
*CAP
1 *771:RESET_B 0.000258166