* NGSPICE file created from alu.ext - technology: sky130A

* Black-box entry subcircuit for sky130_fd_sc_hd__decap_8 abstract view
.subckt sky130_fd_sc_hd__decap_8 VGND VNB VPB VPWR
.ends

* Black-box entry subcircuit for sky130_fd_sc_hd__nand3_2 abstract view
.subckt sky130_fd_sc_hd__nand3_2 A B C VGND VNB VPB VPWR Y
.ends

* Black-box entry subcircuit for sky130_fd_sc_hd__nand2_1 abstract view
.subckt sky130_fd_sc_hd__nand2_1 A B VGND VNB VPB VPWR Y
.ends

* Black-box entry subcircuit for sky130_fd_sc_hd__xor2_1 abstract view
.subckt sky130_fd_sc_hd__xor2_1 A B VGND VNB VPB VPWR X
.ends

* Black-box entry subcircuit for sky130_fd_sc_hd__tapvpwrvgnd_1 abstract view
.subckt sky130_fd_sc_hd__tapvpwrvgnd_1 VGND VPWR
.ends

* Black-box entry subcircuit for sky130_fd_sc_hd__and2_1 abstract view
.subckt sky130_fd_sc_hd__and2_1 A B VGND VNB VPB VPWR X
.ends

* Black-box entry subcircuit for sky130_ef_sc_hd__decap_12 abstract view
.subckt sky130_ef_sc_hd__decap_12 VPWR VGND VPB VNB
.ends

* Black-box entry subcircuit for sky130_fd_sc_hd__and2_2 abstract view
.subckt sky130_fd_sc_hd__and2_2 A B VGND VNB VPB VPWR X
.ends

* Black-box entry subcircuit for sky130_fd_sc_hd__nor2_2 abstract view
.subckt sky130_fd_sc_hd__nor2_2 A B VGND VNB VPB VPWR Y
.ends

* Black-box entry subcircuit for sky130_fd_sc_hd__and3_4 abstract view
.subckt sky130_fd_sc_hd__and3_4 A B C VGND VNB VPB VPWR X
.ends

* Black-box entry subcircuit for sky130_fd_sc_hd__fill_2 abstract view
.subckt sky130_fd_sc_hd__fill_2 VGND VNB VPB VPWR
.ends

* Black-box entry subcircuit for sky130_fd_sc_hd__decap_6 abstract view
.subckt sky130_fd_sc_hd__decap_6 VGND VNB VPB VPWR
.ends

* Black-box entry subcircuit for sky130_fd_sc_hd__and3_1 abstract view
.subckt sky130_fd_sc_hd__and3_1 A B C VGND VNB VPB VPWR X
.ends

* Black-box entry subcircuit for sky130_fd_sc_hd__decap_3 abstract view
.subckt sky130_fd_sc_hd__decap_3 VGND VNB VPB VPWR
.ends

* Black-box entry subcircuit for sky130_fd_sc_hd__fill_1 abstract view
.subckt sky130_fd_sc_hd__fill_1 VGND VNB VPB VPWR
.ends

* Black-box entry subcircuit for sky130_fd_sc_hd__diode_2 abstract view
.subckt sky130_fd_sc_hd__diode_2 DIODE VGND VNB VPB VPWR
.ends

* Black-box entry subcircuit for sky130_fd_sc_hd__buf_2 abstract view
.subckt sky130_fd_sc_hd__buf_2 A VGND VNB VPB VPWR X
.ends

* Black-box entry subcircuit for sky130_fd_sc_hd__a21bo_1 abstract view
.subckt sky130_fd_sc_hd__a21bo_1 A1 A2 B1_N VGND VNB VPB VPWR X
.ends

* Black-box entry subcircuit for sky130_fd_sc_hd__xnor2_1 abstract view
.subckt sky130_fd_sc_hd__xnor2_1 A B VGND VNB VPB VPWR Y
.ends

* Black-box entry subcircuit for sky130_fd_sc_hd__o221a_1 abstract view
.subckt sky130_fd_sc_hd__o221a_1 A1 A2 B1 B2 C1 VGND VNB VPB VPWR X
.ends

* Black-box entry subcircuit for sky130_fd_sc_hd__buf_6 abstract view
.subckt sky130_fd_sc_hd__buf_6 A VGND VNB VPB VPWR X
.ends

* Black-box entry subcircuit for sky130_fd_sc_hd__a21oi_2 abstract view
.subckt sky130_fd_sc_hd__a21oi_2 A1 A2 B1 VGND VNB VPB VPWR Y
.ends

* Black-box entry subcircuit for sky130_fd_sc_hd__inv_2 abstract view
.subckt sky130_fd_sc_hd__inv_2 A VGND VNB VPB VPWR Y
.ends

* Black-box entry subcircuit for sky130_fd_sc_hd__a31o_1 abstract view
.subckt sky130_fd_sc_hd__a31o_1 A1 A2 A3 B1 VGND VNB VPB VPWR X
.ends

* Black-box entry subcircuit for sky130_fd_sc_hd__nor2_4 abstract view
.subckt sky130_fd_sc_hd__nor2_4 A B VGND VNB VPB VPWR Y
.ends

* Black-box entry subcircuit for sky130_fd_sc_hd__o31a_1 abstract view
.subckt sky130_fd_sc_hd__o31a_1 A1 A2 A3 B1 VGND VNB VPB VPWR X
.ends

* Black-box entry subcircuit for sky130_fd_sc_hd__dlygate4sd1_1 abstract view
.subckt sky130_fd_sc_hd__dlygate4sd1_1 A VGND VNB VPB VPWR X
.ends

* Black-box entry subcircuit for sky130_fd_sc_hd__a22o_1 abstract view
.subckt sky130_fd_sc_hd__a22o_1 A1 A2 B1 B2 VGND VNB VPB VPWR X
.ends

* Black-box entry subcircuit for sky130_fd_sc_hd__nand3b_4 abstract view
.subckt sky130_fd_sc_hd__nand3b_4 A_N B C VGND VNB VPB VPWR Y
.ends

* Black-box entry subcircuit for sky130_fd_sc_hd__and4_1 abstract view
.subckt sky130_fd_sc_hd__and4_1 A B C D VGND VNB VPB VPWR X
.ends

* Black-box entry subcircuit for sky130_fd_sc_hd__and3_2 abstract view
.subckt sky130_fd_sc_hd__and3_2 A B C VGND VNB VPB VPWR X
.ends

* Black-box entry subcircuit for sky130_fd_sc_hd__decap_4 abstract view
.subckt sky130_fd_sc_hd__decap_4 VGND VNB VPB VPWR
.ends

* Black-box entry subcircuit for sky130_fd_sc_hd__a21o_1 abstract view
.subckt sky130_fd_sc_hd__a21o_1 A1 A2 B1 VGND VNB VPB VPWR X
.ends

* Black-box entry subcircuit for sky130_fd_sc_hd__or2b_2 abstract view
.subckt sky130_fd_sc_hd__or2b_2 A B_N VGND VNB VPB VPWR X
.ends

* Black-box entry subcircuit for sky130_fd_sc_hd__o21ai_2 abstract view
.subckt sky130_fd_sc_hd__o21ai_2 A1 A2 B1 VGND VNB VPB VPWR Y
.ends

* Black-box entry subcircuit for sky130_fd_sc_hd__nand3_1 abstract view
.subckt sky130_fd_sc_hd__nand3_1 A B C VGND VNB VPB VPWR Y
.ends

* Black-box entry subcircuit for sky130_fd_sc_hd__o2bb2a_1 abstract view
.subckt sky130_fd_sc_hd__o2bb2a_1 A1_N A2_N B1 B2 VGND VNB VPB VPWR X
.ends

* Black-box entry subcircuit for sky130_fd_sc_hd__nand2_2 abstract view
.subckt sky130_fd_sc_hd__nand2_2 A B VGND VNB VPB VPWR Y
.ends

* Black-box entry subcircuit for sky130_fd_sc_hd__or3_4 abstract view
.subckt sky130_fd_sc_hd__or3_4 A B C VGND VNB VPB VPWR X
.ends

* Black-box entry subcircuit for sky130_fd_sc_hd__a211o_1 abstract view
.subckt sky130_fd_sc_hd__a211o_1 A1 A2 B1 C1 VGND VNB VPB VPWR X
.ends

* Black-box entry subcircuit for sky130_fd_sc_hd__a21oi_1 abstract view
.subckt sky130_fd_sc_hd__a21oi_1 A1 A2 B1 VGND VNB VPB VPWR Y
.ends

* Black-box entry subcircuit for sky130_fd_sc_hd__o22a_1 abstract view
.subckt sky130_fd_sc_hd__o22a_1 A1 A2 B1 B2 VGND VNB VPB VPWR X
.ends

* Black-box entry subcircuit for sky130_fd_sc_hd__a22oi_4 abstract view
.subckt sky130_fd_sc_hd__a22oi_4 A1 A2 B1 B2 VGND VNB VPB VPWR Y
.ends

* Black-box entry subcircuit for sky130_fd_sc_hd__buf_8 abstract view
.subckt sky130_fd_sc_hd__buf_8 A VGND VNB VPB VPWR X
.ends

* Black-box entry subcircuit for sky130_fd_sc_hd__and4_4 abstract view
.subckt sky130_fd_sc_hd__and4_4 A B C D VGND VNB VPB VPWR X
.ends

* Black-box entry subcircuit for sky130_fd_sc_hd__xnor2_2 abstract view
.subckt sky130_fd_sc_hd__xnor2_2 A B VGND VNB VPB VPWR Y
.ends

* Black-box entry subcircuit for sky130_fd_sc_hd__a22oi_2 abstract view
.subckt sky130_fd_sc_hd__a22oi_2 A1 A2 B1 B2 VGND VNB VPB VPWR Y
.ends

* Black-box entry subcircuit for sky130_fd_sc_hd__or2_1 abstract view
.subckt sky130_fd_sc_hd__or2_1 A B VGND VNB VPB VPWR X
.ends

* Black-box entry subcircuit for sky130_fd_sc_hd__and2b_1 abstract view
.subckt sky130_fd_sc_hd__and2b_1 A_N B VGND VNB VPB VPWR X
.ends

* Black-box entry subcircuit for sky130_fd_sc_hd__nand4_4 abstract view
.subckt sky130_fd_sc_hd__nand4_4 A B C D VGND VNB VPB VPWR Y
.ends

* Black-box entry subcircuit for sky130_fd_sc_hd__clkbuf_4 abstract view
.subckt sky130_fd_sc_hd__clkbuf_4 A VGND VNB VPB VPWR X
.ends

* Black-box entry subcircuit for sky130_fd_sc_hd__nand2_4 abstract view
.subckt sky130_fd_sc_hd__nand2_4 A B VGND VNB VPB VPWR Y
.ends

* Black-box entry subcircuit for sky130_fd_sc_hd__xor2_2 abstract view
.subckt sky130_fd_sc_hd__xor2_2 A B VGND VNB VPB VPWR X
.ends

* Black-box entry subcircuit for sky130_fd_sc_hd__a22o_4 abstract view
.subckt sky130_fd_sc_hd__a22o_4 A1 A2 B1 B2 VGND VNB VPB VPWR X
.ends

* Black-box entry subcircuit for sky130_fd_sc_hd__and3b_1 abstract view
.subckt sky130_fd_sc_hd__and3b_1 A_N B C VGND VNB VPB VPWR X
.ends

* Black-box entry subcircuit for sky130_fd_sc_hd__o21a_1 abstract view
.subckt sky130_fd_sc_hd__o21a_1 A1 A2 B1 VGND VNB VPB VPWR X
.ends

* Black-box entry subcircuit for sky130_fd_sc_hd__nand3_4 abstract view
.subckt sky130_fd_sc_hd__nand3_4 A B C VGND VNB VPB VPWR Y
.ends

* Black-box entry subcircuit for sky130_fd_sc_hd__a211o_4 abstract view
.subckt sky130_fd_sc_hd__a211o_4 A1 A2 B1 C1 VGND VNB VPB VPWR X
.ends

* Black-box entry subcircuit for sky130_fd_sc_hd__nor2_1 abstract view
.subckt sky130_fd_sc_hd__nor2_1 A B VGND VNB VPB VPWR Y
.ends

* Black-box entry subcircuit for sky130_fd_sc_hd__o311a_1 abstract view
.subckt sky130_fd_sc_hd__o311a_1 A1 A2 A3 B1 C1 VGND VNB VPB VPWR X
.ends

* Black-box entry subcircuit for sky130_fd_sc_hd__xnor2_4 abstract view
.subckt sky130_fd_sc_hd__xnor2_4 A B VGND VNB VPB VPWR Y
.ends

* Black-box entry subcircuit for sky130_fd_sc_hd__or2_4 abstract view
.subckt sky130_fd_sc_hd__or2_4 A B VGND VNB VPB VPWR X
.ends

* Black-box entry subcircuit for sky130_fd_sc_hd__buf_4 abstract view
.subckt sky130_fd_sc_hd__buf_4 A VGND VNB VPB VPWR X
.ends

* Black-box entry subcircuit for sky130_fd_sc_hd__a22o_2 abstract view
.subckt sky130_fd_sc_hd__a22o_2 A1 A2 B1 B2 VGND VNB VPB VPWR X
.ends

* Black-box entry subcircuit for sky130_fd_sc_hd__clkbuf_2 abstract view
.subckt sky130_fd_sc_hd__clkbuf_2 A VGND VNB VPB VPWR X
.ends

* Black-box entry subcircuit for sky130_fd_sc_hd__a311o_1 abstract view
.subckt sky130_fd_sc_hd__a311o_1 A1 A2 A3 B1 C1 VGND VNB VPB VPWR X
.ends

* Black-box entry subcircuit for sky130_fd_sc_hd__or3b_1 abstract view
.subckt sky130_fd_sc_hd__or3b_1 A B C_N VGND VNB VPB VPWR X
.ends

* Black-box entry subcircuit for sky130_fd_sc_hd__or2b_1 abstract view
.subckt sky130_fd_sc_hd__or2b_1 A B_N VGND VNB VPB VPWR X
.ends

* Black-box entry subcircuit for sky130_fd_sc_hd__o21ai_1 abstract view
.subckt sky130_fd_sc_hd__o21ai_1 A1 A2 B1 VGND VNB VPB VPWR Y
.ends

* Black-box entry subcircuit for sky130_fd_sc_hd__buf_12 abstract view
.subckt sky130_fd_sc_hd__buf_12 A VGND VNB VPB VPWR X
.ends

* Black-box entry subcircuit for sky130_fd_sc_hd__or2_2 abstract view
.subckt sky130_fd_sc_hd__or2_2 A B VGND VNB VPB VPWR X
.ends

* Black-box entry subcircuit for sky130_fd_sc_hd__o21bai_2 abstract view
.subckt sky130_fd_sc_hd__o21bai_2 A1 A2 B1_N VGND VNB VPB VPWR Y
.ends

* Black-box entry subcircuit for sky130_fd_sc_hd__clkbuf_1 abstract view
.subckt sky130_fd_sc_hd__clkbuf_1 A VGND VNB VPB VPWR X
.ends

* Black-box entry subcircuit for sky130_fd_sc_hd__or3_2 abstract view
.subckt sky130_fd_sc_hd__or3_2 A B C VGND VNB VPB VPWR X
.ends

* Black-box entry subcircuit for sky130_fd_sc_hd__a2bb2o_1 abstract view
.subckt sky130_fd_sc_hd__a2bb2o_1 A1_N A2_N B1 B2 VGND VNB VPB VPWR X
.ends

* Black-box entry subcircuit for sky130_fd_sc_hd__a211oi_2 abstract view
.subckt sky130_fd_sc_hd__a211oi_2 A1 A2 B1 C1 VGND VNB VPB VPWR Y
.ends

* Black-box entry subcircuit for sky130_fd_sc_hd__o211a_1 abstract view
.subckt sky130_fd_sc_hd__o211a_1 A1 A2 B1 C1 VGND VNB VPB VPWR X
.ends

* Black-box entry subcircuit for sky130_fd_sc_hd__a21o_4 abstract view
.subckt sky130_fd_sc_hd__a21o_4 A1 A2 B1 VGND VNB VPB VPWR X
.ends

* Black-box entry subcircuit for sky130_fd_sc_hd__a21boi_2 abstract view
.subckt sky130_fd_sc_hd__a21boi_2 A1 A2 B1_N VGND VNB VPB VPWR Y
.ends

* Black-box entry subcircuit for sky130_fd_sc_hd__nand4_2 abstract view
.subckt sky130_fd_sc_hd__nand4_2 A B C D VGND VNB VPB VPWR Y
.ends

* Black-box entry subcircuit for sky130_fd_sc_hd__o21bai_4 abstract view
.subckt sky130_fd_sc_hd__o21bai_4 A1 A2 B1_N VGND VNB VPB VPWR Y
.ends

* Black-box entry subcircuit for sky130_fd_sc_hd__a2111oi_4 abstract view
.subckt sky130_fd_sc_hd__a2111oi_4 A1 A2 B1 C1 D1 VGND VNB VPB VPWR Y
.ends

* Black-box entry subcircuit for sky130_fd_sc_hd__o211ai_2 abstract view
.subckt sky130_fd_sc_hd__o211ai_2 A1 A2 B1 C1 VGND VNB VPB VPWR Y
.ends

* Black-box entry subcircuit for sky130_fd_sc_hd__clkbuf_16 abstract view
.subckt sky130_fd_sc_hd__clkbuf_16 A VGND VNB VPB VPWR X
.ends

* Black-box entry subcircuit for sky130_fd_sc_hd__and2_4 abstract view
.subckt sky130_fd_sc_hd__and2_4 A B VGND VNB VPB VPWR X
.ends

* Black-box entry subcircuit for sky130_fd_sc_hd__o21a_2 abstract view
.subckt sky130_fd_sc_hd__o21a_2 A1 A2 B1 VGND VNB VPB VPWR X
.ends

* Black-box entry subcircuit for sky130_fd_sc_hd__a211oi_4 abstract view
.subckt sky130_fd_sc_hd__a211oi_4 A1 A2 B1 C1 VGND VNB VPB VPWR Y
.ends

* Black-box entry subcircuit for sky130_fd_sc_hd__dlymetal6s2s_1 abstract view
.subckt sky130_fd_sc_hd__dlymetal6s2s_1 A VGND VNB VPB VPWR X
.ends

* Black-box entry subcircuit for sky130_fd_sc_hd__o32a_4 abstract view
.subckt sky130_fd_sc_hd__o32a_4 A1 A2 A3 B1 B2 VGND VNB VPB VPWR X
.ends

* Black-box entry subcircuit for sky130_fd_sc_hd__a21o_2 abstract view
.subckt sky130_fd_sc_hd__a21o_2 A1 A2 B1 VGND VNB VPB VPWR X
.ends

.subckt alu A[0] A[1] A[2] A[3] A[4] A[5] A[6] A[7] B[0] B[1] B[2] B[3] B[4] B[5]
+ B[6] B[7] VGND VPWR opcode[0] opcode[1] opcode[2] out[0] out[1] out[2] out[3] out[4]
+ out[5] out[6] out[7]
XFILLER_0_4_182 VGND VGND VPWR VPWR sky130_fd_sc_hd__decap_8
X_432_ _106_ net39 _108_ VGND VGND VPWR VPWR _109_ sky130_fd_sc_hd__nand3_2
X_501_ _175_ _177_ VGND VGND VPWR VPWR _178_ sky130_fd_sc_hd__nand2_1
X_294_ _219_ _222_ VGND VGND VPWR VPWR _223_ sky130_fd_sc_hd__xor2_1
XTAP_TAPCELL_ROW_15_106 VGND VPWR sky130_fd_sc_hd__tapvpwrvgnd_1
X_363_ _019_ _041_ VGND VGND VPWR VPWR _042_ sky130_fd_sc_hd__and2_1
XFILLER_0_13_73 VPWR VGND VPWR VGND sky130_ef_sc_hd__decap_12
X_346_ _022_ _024_ VGND VGND VPWR VPWR _025_ sky130_fd_sc_hd__and2_2
X_415_ _090_ _091_ VGND VGND VPWR VPWR _092_ sky130_fd_sc_hd__nor2_2
XTAP_TAPCELL_ROW_20_120 VGND VPWR sky130_fd_sc_hd__tapvpwrvgnd_1
X_277_ _182_ _197_ _205_ VGND VGND VPWR VPWR _207_ sky130_fd_sc_hd__and3_4
XFILLER_0_4_82 VGND VGND VPWR VPWR sky130_fd_sc_hd__fill_2
XFILLER_0_9_27 VGND VGND VPWR VPWR sky130_fd_sc_hd__decap_6
XFILLER_0_10_85 VGND VGND VPWR VPWR sky130_fd_sc_hd__fill_2
X_329_ _005_ _006_ _008_ VGND VGND VPWR VPWR _009_ sky130_fd_sc_hd__and3_1
XFILLER_0_19_169 VGND VGND VPWR VPWR sky130_fd_sc_hd__decap_6
XPHY_EDGE_ROW_8_Left_36 VGND VGND VPWR VPWR sky130_fd_sc_hd__decap_3
XFILLER_0_16_139 VGND VGND VPWR VPWR sky130_fd_sc_hd__fill_1
XFILLER_0_26_29 VPWR VGND VPWR VGND sky130_ef_sc_hd__decap_12
XANTENNA_5 net21 VGND VGND VPWR VPWR sky130_fd_sc_hd__diode_2
XFILLER_0_21_142 VPWR VGND VPWR VGND sky130_ef_sc_hd__decap_12
XFILLER_0_16_73 VGND VGND VPWR VPWR sky130_fd_sc_hd__decap_8
XFILLER_0_12_175 VGND VGND VPWR VPWR sky130_fd_sc_hd__decap_3
XFILLER_0_12_153 VPWR VGND VPWR VGND sky130_ef_sc_hd__decap_12
Xoutput20 net20 VGND VGND VPWR VPWR out[0] sky130_fd_sc_hd__buf_2
XTAP_TAPCELL_ROW_18_115 VGND VPWR sky130_fd_sc_hd__tapvpwrvgnd_1
XFILLER_0_27_83 VGND VGND VPWR VPWR sky130_fd_sc_hd__fill_1
XFILLER_0_4_150 VGND VGND VPWR VPWR sky130_fd_sc_hd__fill_1
XPHY_EDGE_ROW_21_Left_49 VGND VGND VPWR VPWR sky130_fd_sc_hd__decap_3
X_431_ _072_ _067_ _066_ VGND VGND VPWR VPWR _108_ sky130_fd_sc_hd__a21bo_1
X_362_ _021_ _040_ VGND VGND VPWR VPWR _041_ sky130_fd_sc_hd__xnor2_1
X_293_ _183_ _220_ _221_ VGND VGND VPWR VPWR _222_ sky130_fd_sc_hd__a21bo_1
X_500_ _187_ _133_ _135_ _200_ _181_ VGND VGND VPWR VPWR _177_ sky130_fd_sc_hd__o221a_1
Xrebuffer8 _075_ VGND VGND VPWR VPWR net36 sky130_fd_sc_hd__buf_6
XFILLER_0_13_63 VGND VGND VPWR VPWR sky130_fd_sc_hd__fill_1
XTAP_TAPCELL_ROW_20_121 VGND VPWR sky130_fd_sc_hd__tapvpwrvgnd_1
X_276_ _183_ net40 _197_ VGND VGND VPWR VPWR _206_ sky130_fd_sc_hd__a21oi_2
X_414_ _176_ net15 _089_ VGND VGND VPWR VPWR _091_ sky130_fd_sc_hd__a21oi_2
X_345_ _023_ VGND VGND VPWR VPWR _024_ sky130_fd_sc_hd__inv_2
XPHY_EDGE_ROW_21_Right_21 VGND VGND VPWR VPWR sky130_fd_sc_hd__decap_3
XPHY_EDGE_ROW_12_Right_12 VGND VGND VPWR VPWR sky130_fd_sc_hd__decap_3
X_328_ net1 _218_ _221_ _007_ VGND VGND VPWR VPWR _008_ sky130_fd_sc_hd__a31o_1
XFILLER_0_10_20 VGND VGND VPWR VPWR sky130_fd_sc_hd__decap_8
X_259_ net19 _185_ VGND VGND VPWR VPWR _190_ sky130_fd_sc_hd__nor2_4
XPHY_EDGE_ROW_24_Left_52 VGND VGND VPWR VPWR sky130_fd_sc_hd__decap_3
XFILLER_0_19_73 VPWR VGND VPWR VGND sky130_ef_sc_hd__decap_12
XFILLER_0_25_129 VPWR VGND VPWR VGND sky130_ef_sc_hd__decap_12
XFILLER_0_21_74 VGND VGND VPWR VPWR sky130_fd_sc_hd__decap_6
XFILLER_0_27_3 VGND VGND VPWR VPWR sky130_fd_sc_hd__decap_3
XFILLER_0_1_95 VPWR VGND VPWR VGND sky130_ef_sc_hd__decap_12
XFILLER_0_1_73 VGND VGND VPWR VPWR sky130_fd_sc_hd__fill_1
XFILLER_0_1_40 VGND VGND VPWR VPWR sky130_fd_sc_hd__fill_2
XFILLER_0_21_154 VPWR VGND VPWR VGND sky130_ef_sc_hd__decap_12
XANTENNA_6 net23 VGND VGND VPWR VPWR sky130_fd_sc_hd__diode_2
XFILLER_0_16_85 VGND VGND VPWR VPWR sky130_fd_sc_hd__decap_3
XFILLER_0_16_52 VGND VGND VPWR VPWR sky130_fd_sc_hd__fill_1
XFILLER_0_6_18 VGND VGND VPWR VPWR sky130_fd_sc_hd__decap_3
XFILLER_0_12_165 VGND VGND VPWR VPWR sky130_fd_sc_hd__fill_2
XFILLER_0_12_110 VPWR VGND VPWR VGND sky130_ef_sc_hd__decap_12
XPHY_EDGE_ROW_6_Right_6 VGND VGND VPWR VPWR sky130_fd_sc_hd__decap_3
Xoutput21 net21 VGND VGND VPWR VPWR out[1] sky130_fd_sc_hd__buf_2
XFILLER_0_7_181 VGND VGND VPWR VPWR sky130_fd_sc_hd__decap_8
XFILLER_0_27_95 VPWR VGND VPWR VGND sky130_ef_sc_hd__decap_12
XTAP_TAPCELL_ROW_23_130 VGND VPWR sky130_fd_sc_hd__tapvpwrvgnd_1
X_361_ _218_ _241_ _227_ _205_ VGND VGND VPWR VPWR _040_ sky130_fd_sc_hd__o31a_1
Xrebuffer9 _075_ VGND VGND VPWR VPWR net37 sky130_fd_sc_hd__dlygate4sd1_1
XFILLER_0_2_9 VGND VGND VPWR VPWR sky130_fd_sc_hd__fill_1
X_430_ _105_ _099_ _100_ VGND VGND VPWR VPWR _107_ sky130_fd_sc_hd__nand3_2
X_292_ net2 net35 _217_ _182_ VGND VGND VPWR VPWR _221_ sky130_fd_sc_hd__a22o_1
XFILLER_0_13_42 VPWR VGND VPWR VGND sky130_ef_sc_hd__decap_12
XFILLER_0_1_165 VGND VGND VPWR VPWR sky130_fd_sc_hd__decap_3
X_275_ net17 net18 net19 VGND VGND VPWR VPWR _205_ sky130_fd_sc_hd__nand3b_4
X_344_ net1 net2 net12 net13 VGND VGND VPWR VPWR _023_ sky130_fd_sc_hd__and4_1
X_413_ net1 net15 _089_ VGND VGND VPWR VPWR _090_ sky130_fd_sc_hd__and3_2
XFILLER_0_19_85 VGND VGND VPWR VPWR sky130_fd_sc_hd__decap_8
X_327_ _182_ net2 net35 _217_ VGND VGND VPWR VPWR _007_ sky130_fd_sc_hd__and4_1
X_258_ _186_ _180_ VGND VGND VPWR VPWR _189_ sky130_fd_sc_hd__nor2_4
XFILLER_0_10_54 VGND VGND VPWR VPWR sky130_fd_sc_hd__decap_4
XFILLER_0_25_119 VGND VGND VPWR VPWR sky130_fd_sc_hd__fill_1
XFILLER_0_18_160 VGND VGND VPWR VPWR sky130_fd_sc_hd__decap_3
XFILLER_0_24_141 VGND VGND VPWR VPWR sky130_fd_sc_hd__decap_8
XFILLER_0_21_42 VGND VGND VPWR VPWR sky130_fd_sc_hd__fill_1
XFILLER_0_15_130 VGND VGND VPWR VPWR sky130_fd_sc_hd__fill_1
XFILLER_0_21_166 VGND VGND VPWR VPWR sky130_fd_sc_hd__fill_2
XFILLER_0_16_64 VGND VGND VPWR VPWR sky130_fd_sc_hd__decap_3
XFILLER_0_12_122 VPWR VGND VPWR VGND sky130_ef_sc_hd__decap_12
Xoutput22 net22 VGND VGND VPWR VPWR out[2] sky130_fd_sc_hd__buf_2
XFILLER_0_9_3 VPWR VGND VPWR VGND sky130_ef_sc_hd__decap_12
XFILLER_0_27_63 VPWR VGND VPWR VGND sky130_ef_sc_hd__decap_12
XFILLER_0_27_52 VGND VGND VPWR VPWR sky130_fd_sc_hd__decap_4
X_360_ _189_ _037_ _038_ VGND VGND VPWR VPWR _039_ sky130_fd_sc_hd__and3_1
X_291_ _193_ _197_ _217_ VGND VGND VPWR VPWR _220_ sky130_fd_sc_hd__and3_1
XFILLER_0_4_141 VGND VGND VPWR VPWR sky130_fd_sc_hd__fill_2
XFILLER_0_7_51 VGND VGND VPWR VPWR sky130_fd_sc_hd__decap_4
XFILLER_0_13_54 VGND VGND VPWR VPWR sky130_fd_sc_hd__fill_2
X_489_ _163_ _162_ _164_ VGND VGND VPWR VPWR _165_ sky130_fd_sc_hd__a21o_1
XFILLER_0_1_188 VGND VGND VPWR VPWR sky130_fd_sc_hd__fill_2
XFILLER_0_1_133 VPWR VGND VPWR VGND sky130_ef_sc_hd__decap_12
XFILLER_0_1_122 VGND VGND VPWR VPWR sky130_fd_sc_hd__decap_4
X_274_ net1 _183_ VGND VGND VPWR VPWR _204_ sky130_fd_sc_hd__or2b_2
X_343_ net2 net12 _021_ net1 VGND VGND VPWR VPWR _022_ sky130_fd_sc_hd__a22o_1
X_412_ net1 net14 _070_ _069_ VGND VGND VPWR VPWR _089_ sky130_fd_sc_hd__a31o_1
XFILLER_0_4_52 VPWR VGND VPWR VGND sky130_ef_sc_hd__decap_12
XFILLER_0_4_74 VGND VGND VPWR VPWR sky130_fd_sc_hd__decap_8
XFILLER_0_4_85 VPWR VGND VPWR VGND sky130_ef_sc_hd__decap_12
X_326_ _003_ _004_ _002_ VGND VGND VPWR VPWR _006_ sky130_fd_sc_hd__o21ai_2
X_257_ _176_ _183_ _187_ VGND VGND VPWR VPWR _188_ sky130_fd_sc_hd__nand3_1
XFILLER_0_10_33 VGND VGND VPWR VPWR sky130_fd_sc_hd__fill_1
XFILLER_0_19_128 VPWR VGND VPWR VGND sky130_ef_sc_hd__decap_12
XFILLER_0_25_109 VGND VGND VPWR VPWR sky130_fd_sc_hd__decap_3
XFILLER_0_16_109 VPWR VGND VPWR VGND sky130_ef_sc_hd__decap_12
X_309_ _217_ _195_ _226_ _237_ VGND VGND VPWR VPWR net22 sky130_fd_sc_hd__o2bb2a_1
XFILLER_0_21_189 VGND VGND VPWR VPWR sky130_fd_sc_hd__fill_1
XFILLER_0_21_101 VGND VGND VPWR VPWR sky130_fd_sc_hd__decap_8
XTAP_TAPCELL_ROW_10_90 VGND VPWR sky130_fd_sc_hd__tapvpwrvgnd_1
XFILLER_0_16_21 VGND VGND VPWR VPWR sky130_fd_sc_hd__decap_6
XFILLER_0_12_134 VGND VGND VPWR VPWR sky130_fd_sc_hd__decap_6
XFILLER_0_8_139 VGND VGND VPWR VPWR sky130_fd_sc_hd__fill_1
Xoutput23 net23 VGND VGND VPWR VPWR out[3] sky130_fd_sc_hd__buf_2
XFILLER_0_27_75 VGND VGND VPWR VPWR sky130_fd_sc_hd__decap_8
XFILLER_0_5_109 VGND VGND VPWR VPWR sky130_fd_sc_hd__decap_3
XFILLER_0_4_131 VGND VGND VPWR VPWR sky130_fd_sc_hd__decap_8
X_290_ _176_ _218_ VGND VGND VPWR VPWR _219_ sky130_fd_sc_hd__nand2_1
XFILLER_0_13_11 VGND VGND VPWR VPWR sky130_fd_sc_hd__decap_4
X_488_ _099_ _107_ VGND VGND VPWR VPWR _164_ sky130_fd_sc_hd__nand2_1
XFILLER_0_1_145 VPWR VGND VPWR VGND sky130_ef_sc_hd__decap_12
XTAP_TAPCELL_ROW_3_70 VGND VPWR sky130_fd_sc_hd__tapvpwrvgnd_1
X_273_ net19 _180_ _185_ VGND VGND VPWR VPWR _203_ sky130_fd_sc_hd__and3_2
X_342_ net13 VGND VGND VPWR VPWR _021_ sky130_fd_sc_hd__buf_6
X_411_ net30 _074_ net37 VGND VGND VPWR VPWR _088_ sky130_fd_sc_hd__nand3_2
XFILLER_0_24_65 VGND VGND VPWR VPWR sky130_fd_sc_hd__decap_4
XFILLER_0_4_20 VGND VGND VPWR VPWR sky130_fd_sc_hd__decap_8
X_256_ net17 _186_ VGND VGND VPWR VPWR _187_ sky130_fd_sc_hd__nand2_2
XFILLER_0_19_32 VGND VGND VPWR VPWR sky130_fd_sc_hd__fill_1
XTAP_TAPCELL_ROW_0_60 VGND VPWR sky130_fd_sc_hd__tapvpwrvgnd_1
X_325_ _002_ _003_ _004_ VGND VGND VPWR VPWR _005_ sky130_fd_sc_hd__or3_4
XFILLER_0_10_67 VPWR VGND VPWR VGND sky130_ef_sc_hd__decap_12
XFILLER_0_24_187 VGND VGND VPWR VPWR sky130_fd_sc_hd__decap_3
X_308_ _231_ _232_ _236_ _195_ VGND VGND VPWR VPWR _237_ sky130_fd_sc_hd__a211o_1
XFILLER_0_1_65 VGND VGND VPWR VPWR sky130_fd_sc_hd__decap_8
XFILLER_0_1_32 VGND VGND VPWR VPWR sky130_fd_sc_hd__decap_8
XFILLER_0_15_176 VGND VGND VPWR VPWR sky130_fd_sc_hd__fill_2
XTAP_TAPCELL_ROW_10_91 VGND VPWR sky130_fd_sc_hd__tapvpwrvgnd_1
XFILLER_0_21_113 VGND VGND VPWR VPWR sky130_fd_sc_hd__decap_6
XFILLER_0_25_3 VPWR VGND VPWR VGND sky130_ef_sc_hd__decap_12
Xoutput24 net24 VGND VGND VPWR VPWR out[4] sky130_fd_sc_hd__buf_2
XPHY_EDGE_ROW_19_Right_19 VGND VGND VPWR VPWR sky130_fd_sc_hd__decap_3
XFILLER_0_27_43 VGND VGND VPWR VPWR sky130_fd_sc_hd__fill_2
XPHY_EDGE_ROW_15_Left_43 VGND VGND VPWR VPWR sky130_fd_sc_hd__decap_3
X_487_ _153_ _154_ _161_ VGND VGND VPWR VPWR _163_ sky130_fd_sc_hd__nand3_2
XFILLER_0_1_157 VGND VGND VPWR VPWR sky130_fd_sc_hd__decap_8
X_341_ _176_ _241_ _010_ _009_ VGND VGND VPWR VPWR _020_ sky130_fd_sc_hd__a31o_1
X_410_ _052_ _195_ _087_ VGND VGND VPWR VPWR net25 sky130_fd_sc_hd__a21oi_1
X_272_ _193_ _197_ _198_ _201_ VGND VGND VPWR VPWR _202_ sky130_fd_sc_hd__o22a_1
XPHY_EDGE_ROW_0_Left_28 VGND VGND VPWR VPWR sky130_fd_sc_hd__decap_3
XFILLER_0_24_55 VGND VGND VPWR VPWR sky130_fd_sc_hd__fill_1
XFILLER_0_19_11 VGND VGND VPWR VPWR sky130_fd_sc_hd__fill_2
X_255_ net19 VGND VGND VPWR VPWR _186_ sky130_fd_sc_hd__inv_2
X_324_ _196_ net3 _238_ _182_ VGND VGND VPWR VPWR _004_ sky130_fd_sc_hd__a22oi_4
XFILLER_0_10_79 VGND VGND VPWR VPWR sky130_fd_sc_hd__decap_4
XTAP_TAPCELL_ROW_0_61 VGND VPWR sky130_fd_sc_hd__tapvpwrvgnd_1
XPHY_EDGE_ROW_3_Left_31 VGND VGND VPWR VPWR sky130_fd_sc_hd__decap_3
XFILLER_0_24_155 VPWR VGND VPWR VGND sky130_ef_sc_hd__decap_12
XFILLER_0_24_100 VGND VGND VPWR VPWR sky130_fd_sc_hd__fill_2
XFILLER_0_21_89 VPWR VGND VPWR VGND sky130_ef_sc_hd__decap_12
X_307_ _217_ _218_ _190_ _235_ VGND VGND VPWR VPWR _236_ sky130_fd_sc_hd__a31o_1
XFILLER_0_15_144 VGND VGND VPWR VPWR sky130_fd_sc_hd__decap_3
XFILLER_0_21_169 VPWR VGND VPWR VGND sky130_ef_sc_hd__decap_12
XFILLER_0_16_56 VGND VGND VPWR VPWR sky130_fd_sc_hd__decap_8
XFILLER_0_18_3 VGND VGND VPWR VPWR sky130_fd_sc_hd__decap_8
Xoutput25 net25 VGND VGND VPWR VPWR out[5] sky130_fd_sc_hd__buf_2
XFILLER_0_7_3 VPWR VGND VPWR VGND sky130_ef_sc_hd__decap_12
XFILLER_0_13_57 VGND VGND VPWR VPWR sky130_fd_sc_hd__decap_6
XTAP_TAPCELL_ROW_14_101 VGND VPWR sky130_fd_sc_hd__tapvpwrvgnd_1
XFILLER_0_1_169 VGND VGND VPWR VPWR sky130_fd_sc_hd__decap_6
X_486_ _154_ _153_ _161_ VGND VGND VPWR VPWR _162_ sky130_fd_sc_hd__a21o_1
X_271_ _193_ _197_ _200_ VGND VGND VPWR VPWR _201_ sky130_fd_sc_hd__a21oi_1
X_340_ net5 VGND VGND VPWR VPWR _019_ sky130_fd_sc_hd__buf_8
X_469_ _182_ net35 net7 net8 VGND VGND VPWR VPWR _145_ sky130_fd_sc_hd__and4_1
X_254_ net17 net18 VGND VGND VPWR VPWR _185_ sky130_fd_sc_hd__nand2_2
X_323_ net9 net10 net3 net4 VGND VGND VPWR VPWR _003_ sky130_fd_sc_hd__and4_4
XFILLER_0_27_175 VGND VGND VPWR VPWR sky130_fd_sc_hd__fill_1
XFILLER_0_19_109 VGND VGND VPWR VPWR sky130_fd_sc_hd__decap_3
XFILLER_0_10_58 VGND VGND VPWR VPWR sky130_fd_sc_hd__fill_1
XFILLER_0_24_167 VPWR VGND VPWR VGND sky130_ef_sc_hd__decap_12
XFILLER_0_24_134 VGND VGND VPWR VPWR sky130_fd_sc_hd__decap_6
XFILLER_0_21_24 VPWR VGND VPWR VGND sky130_ef_sc_hd__decap_12
X_306_ _217_ _218_ _198_ _234_ VGND VGND VPWR VPWR _235_ sky130_fd_sc_hd__o22a_1
XFILLER_0_15_167 VGND VGND VPWR VPWR sky130_fd_sc_hd__fill_1
XFILLER_0_8_109 VPWR VGND VPWR VGND sky130_ef_sc_hd__decap_12
XPHY_EDGE_ROW_1_Right_1 VGND VGND VPWR VPWR sky130_fd_sc_hd__decap_3
Xoutput26 net26 VGND VGND VPWR VPWR out[6] sky130_fd_sc_hd__buf_2
XTAP_TAPCELL_ROW_17_110 VGND VPWR sky130_fd_sc_hd__tapvpwrvgnd_1
XFILLER_0_7_55 VGND VGND VPWR VPWR sky130_fd_sc_hd__fill_1
XFILLER_0_7_88 VGND VGND VPWR VPWR sky130_fd_sc_hd__decap_3
X_485_ _090_ _160_ VGND VGND VPWR VPWR _161_ sky130_fd_sc_hd__xnor2_2
XTAP_TAPCELL_ROW_14_102 VGND VPWR sky130_fd_sc_hd__tapvpwrvgnd_1
XFILLER_0_13_25 VGND VGND VPWR VPWR sky130_fd_sc_hd__decap_4
X_270_ _199_ VGND VGND VPWR VPWR _200_ sky130_fd_sc_hd__buf_2
XFILLER_0_24_35 VGND VGND VPWR VPWR sky130_fd_sc_hd__fill_1
X_468_ net35 net7 net8 _182_ VGND VGND VPWR VPWR _144_ sky130_fd_sc_hd__a22oi_2
X_399_ net29 _074_ net36 VGND VGND VPWR VPWR _077_ sky130_fd_sc_hd__a21oi_2
X_322_ net2 _218_ VGND VGND VPWR VPWR _002_ sky130_fd_sc_hd__nand2_2
XFILLER_0_19_57 VGND VGND VPWR VPWR sky130_fd_sc_hd__fill_1
X_253_ _176_ _183_ VGND VGND VPWR VPWR _184_ sky130_fd_sc_hd__or2_1
XFILLER_0_24_179 VGND VGND VPWR VPWR sky130_fd_sc_hd__decap_8
XFILLER_0_21_36 VGND VGND VPWR VPWR sky130_fd_sc_hd__decap_6
X_305_ _200_ _233_ VGND VGND VPWR VPWR _234_ sky130_fd_sc_hd__and2b_1
Xoutput27 net27 VGND VGND VPWR VPWR out[7] sky130_fd_sc_hd__buf_8
XFILLER_0_27_35 VGND VGND VPWR VPWR sky130_fd_sc_hd__decap_8
XTAP_TAPCELL_ROW_17_111 VGND VPWR sky130_fd_sc_hd__tapvpwrvgnd_1
XPHY_EDGE_ROW_24_Right_24 VGND VGND VPWR VPWR sky130_fd_sc_hd__decap_3
XPHY_EDGE_ROW_15_Right_15 VGND VGND VPWR VPWR sky130_fd_sc_hd__decap_3
XFILLER_0_7_23 VGND VGND VPWR VPWR sky130_fd_sc_hd__fill_2
XTAP_TAPCELL_ROW_14_103 VGND VPWR sky130_fd_sc_hd__tapvpwrvgnd_1
X_484_ _156_ _159_ VGND VGND VPWR VPWR _160_ sky130_fd_sc_hd__xnor2_2
XPHY_EDGE_ROW_19_Left_47 VGND VGND VPWR VPWR sky130_fd_sc_hd__decap_3
X_467_ _218_ _238_ _021_ _052_ VGND VGND VPWR VPWR _143_ sky130_fd_sc_hd__nand4_4
X_398_ _075_ _074_ _073_ VGND VGND VPWR VPWR _076_ sky130_fd_sc_hd__and3_4
X_252_ _182_ VGND VGND VPWR VPWR _183_ sky130_fd_sc_hd__clkbuf_4
X_321_ _176_ _241_ VGND VGND VPWR VPWR _001_ sky130_fd_sc_hd__nand2_1
XFILLER_0_10_38 VPWR VGND VPWR VGND sky130_ef_sc_hd__decap_12
X_304_ net3 net11 VGND VGND VPWR VPWR _233_ sky130_fd_sc_hd__nand2_4
XFILLER_0_15_169 VGND VGND VPWR VPWR sky130_fd_sc_hd__fill_1
XFILLER_0_15_136 VGND VGND VPWR VPWR sky130_fd_sc_hd__fill_1
XFILLER_0_11_81 VGND VGND VPWR VPWR sky130_fd_sc_hd__decap_6
XPHY_EDGE_ROW_7_Left_35 VGND VGND VPWR VPWR sky130_fd_sc_hd__decap_3
XFILLER_0_11_161 VGND VGND VPWR VPWR sky130_fd_sc_hd__decap_6
XFILLER_0_7_100 VPWR VGND VPWR VGND sky130_ef_sc_hd__decap_12
XTAP_TAPCELL_ROW_17_112 VGND VPWR sky130_fd_sc_hd__tapvpwrvgnd_1
XFILLER_0_4_158 VPWR VGND VPWR VGND sky130_ef_sc_hd__decap_12
XFILLER_0_7_57 VPWR VGND VPWR VGND sky130_ef_sc_hd__decap_12
X_483_ _157_ _158_ VGND VGND VPWR VPWR _159_ sky130_fd_sc_hd__xor2_2
XFILLER_0_24_15 VPWR VGND VPWR VGND sky130_ef_sc_hd__decap_12
XPHY_EDGE_ROW_20_Left_48 VGND VGND VPWR VPWR sky130_fd_sc_hd__decap_3
X_466_ _238_ _021_ _052_ net11 VGND VGND VPWR VPWR _142_ sky130_fd_sc_hd__a22o_4
X_397_ _025_ _032_ _031_ VGND VGND VPWR VPWR _075_ sky130_fd_sc_hd__a21o_1
XFILLER_0_5_3 VPWR VGND VPWR VGND sky130_ef_sc_hd__decap_12
XFILLER_0_4_36 VGND VGND VPWR VPWR sky130_fd_sc_hd__decap_3
X_251_ net9 VGND VGND VPWR VPWR _182_ sky130_fd_sc_hd__buf_6
X_320_ _246_ _247_ _203_ VGND VGND VPWR VPWR _000_ sky130_fd_sc_hd__and3b_1
XFILLER_0_19_48 VGND VGND VPWR VPWR sky130_fd_sc_hd__decap_8
XFILLER_0_27_178 VGND VGND VPWR VPWR sky130_fd_sc_hd__fill_2
XFILLER_0_27_145 VPWR VGND VPWR VGND sky130_ef_sc_hd__decap_12
X_449_ net7 net15 _200_ VGND VGND VPWR VPWR _126_ sky130_fd_sc_hd__a21oi_1
XPHY_EDGE_ROW_23_Left_51 VGND VGND VPWR VPWR sky130_fd_sc_hd__decap_3
X_303_ _229_ _230_ _203_ VGND VGND VPWR VPWR _232_ sky130_fd_sc_hd__o21a_1
XFILLER_0_1_48 VGND VGND VPWR VPWR sky130_fd_sc_hd__decap_8
XFILLER_0_16_27 VGND VGND VPWR VPWR sky130_fd_sc_hd__fill_1
XFILLER_0_7_123 VPWR VGND VPWR VGND sky130_ef_sc_hd__decap_12
XFILLER_0_7_167 VGND VGND VPWR VPWR sky130_fd_sc_hd__fill_1
XFILLER_0_7_189 VGND VGND VPWR VPWR sky130_fd_sc_hd__fill_1
XFILLER_0_2_91 VPWR VGND VPWR VGND sky130_ef_sc_hd__decap_12
XFILLER_0_7_69 VGND VGND VPWR VPWR sky130_fd_sc_hd__decap_4
XFILLER_0_17_81 VGND VGND VPWR VPWR sky130_fd_sc_hd__decap_8
XPHY_EDGE_ROW_5_Right_5 VGND VGND VPWR VPWR sky130_fd_sc_hd__decap_3
XFILLER_0_1_118 VGND VGND VPWR VPWR sky130_fd_sc_hd__fill_1
X_482_ net2 net15 VGND VGND VPWR VPWR _158_ sky130_fd_sc_hd__nand2_1
XTAP_TAPCELL_ROW_20_119 VGND VPWR sky130_fd_sc_hd__tapvpwrvgnd_1
XFILLER_0_0_173 VGND VGND VPWR VPWR sky130_fd_sc_hd__decap_4
XFILLER_0_24_49 VGND VGND VPWR VPWR sky130_fd_sc_hd__decap_6
XFILLER_0_24_27 VGND VGND VPWR VPWR sky130_fd_sc_hd__fill_1